
*** ChampSim Multicore Out-of-Order Simulator ***

Warmup Instructions: 1000000
Simulation Instructions: 10000000
Number of CPUs: 1
LLC sets: 2048
LLC ways: 16
Off-chip DRAM Size: 4096 MB Channels: 1 Width: 64-bit Data Rate: 3200 MT/s

CPU 0 runs /home/carter/Documents/Homework/Spring_2026/ECE-5750-Architecture/assignments/ChampSim/dpc3_traces/607.cactuBSSN_s-2421B.champsimtrace.xz
CPU 0 Bimodal branch predictor

Warmup complete CPU 0 instructions: 1000002 cycles: 483080 (Simulation time: 0 hr 0 min 2 sec) 

Heartbeat CPU 0 instructions: 10000002 cycles: 7778013 heartbeat IPC: 1.28568 cumulative IPC: 1.23373 (Simulation time: 0 hr 0 min 11 sec) 
Finished CPU 0 instructions: 10000000 cycles: 8166019 cumulative IPC: 1.22459 (Simulation time: 0 hr 0 min 12 sec) 

ChampSim completed all CPUs

Region of Interest Statistics

CPU 0 cumulative IPC: 1.22459 instructions: 10000000 cycles: 8166019
L1D TOTAL     ACCESS:    3923098  HIT:    3189842  MISS:     733256
L1D LOAD      ACCESS:    3127036  HIT:    2454408  MISS:     672628
L1D RFO       ACCESS:     796062  HIT:     735434  MISS:      60628
L1D PREFETCH  ACCESS:          0  HIT:          0  MISS:          0
L1D WRITEBACK ACCESS:          0  HIT:          0  MISS:          0
L1D PREFETCH  REQUESTED:          0  ISSUED:          0  USEFUL:          0  USELESS:          0
L1D AVERAGE MISS LATENCY: 28.0111 cycles
L1I TOTAL     ACCESS:    1397351  HIT:    1137252  MISS:     260099
L1I LOAD      ACCESS:    1397351  HIT:    1137252  MISS:     260099
L1I RFO       ACCESS:          0  HIT:          0  MISS:          0
L1I PREFETCH  ACCESS:          0  HIT:          0  MISS:          0
L1I WRITEBACK ACCESS:          0  HIT:          0  MISS:          0
L1I PREFETCH  REQUESTED:          0  ISSUED:          0  USEFUL:          0  USELESS:          0
L1I AVERAGE MISS LATENCY: 14.3092 cycles
L2C TOTAL     ACCESS:    1058154  HIT:    1008660  MISS:      49494
L2C LOAD      ACCESS:     932603  HIT:     889030  MISS:      43573
L2C RFO       ACCESS:      60573  HIT:      54658  MISS:       5915
L2C PREFETCH  ACCESS:          0  HIT:          0  MISS:          0
L2C WRITEBACK ACCESS:      64978  HIT:      64972  MISS:          6
L2C PREFETCH  REQUESTED:          0  ISSUED:          0  USEFUL:          0  USELESS:          0
L2C AVERAGE MISS LATENCY: 182.038 cycles
LLC TOTAL     ACCESS:      55258  HIT:      28750  MISS:      26508
LLC LOAD      ACCESS:      43573  HIT:      22982  MISS:      20591
LLC RFO       ACCESS:       5915  HIT:          0  MISS:       5915
LLC PREFETCH  ACCESS:          0  HIT:          0  MISS:          0
LLC WRITEBACK ACCESS:       5770  HIT:       5768  MISS:          2
LLC PREFETCH  REQUESTED:          0  ISSUED:          0  USEFUL:          0  USELESS:          0
LLC AVERAGE MISS LATENCY: 283.366 cycles
Major fault: 0 Minor fault: 687

DRAM Statistics
 CHANNEL 0
 RQ ROW_BUFFER_HIT:      19174  ROW_BUFFER_MISS:       7332
 DBUS_CONGESTED:       2968
 WQ ROW_BUFFER_HIT:        124  ROW_BUFFER_MISS:        213  FULL:          0

 AVG_CONGESTED_CYCLE: 5

CPU 0 Branch Prediction Accuracy: 99.3398% MPKI: 0.0601 Average ROB Occupancy at Mispredict: 9.91015

Branch types
NOT_BRANCH: 9908743 99.0874%
BRANCH_DIRECT_JUMP: 11095 0.11095%
BRANCH_INDIRECT: 1823 0.01823%
BRANCH_CONDITIONAL: 56180 0.5618%
BRANCH_DIRECT_CALL: 10969 0.10969%
BRANCH_INDIRECT_CALL: 0 0%
BRANCH_RETURN: 10969 0.10969%
BRANCH_OTHER: 0 0%

