
*** ChampSim Multicore Out-of-Order Simulator ***

Warmup Instructions: 1000000
Simulation Instructions: 50000000
Number of CPUs: 1
LLC sets: 2048
LLC ways: 16
Off-chip DRAM Size: 4096 MB Channels: 1 Width: 64-bit Data Rate: 3200 MT/s

CPU 0 runs /home/carter/Documents/Homework/Carter-Owens-ECE-Workbook-Spring-2025/ECE-5750-Architecture/assignments/ChampSim/dpc3_traces/623.xalancbmk_s-700B.champsimtrace.xz
CPU 0 L2C Best Offset prefetcher
Initialize SHIP state
Assign rand_sets[0]: 454  LLC: 2048
rand_sets[0]: 454
Assign rand_sets[1]: 1662  LLC: 2048
rand_sets[1]: 1662
Assign rand_sets[2]: 1921  LLC: 2048
rand_sets[2]: 1921
Assign rand_sets[3]: 1131  LLC: 2048
rand_sets[3]: 1131
Assign rand_sets[4]: 331  LLC: 2048
rand_sets[4]: 331
Assign rand_sets[5]: 1531  LLC: 2048
rand_sets[5]: 1531
Assign rand_sets[6]: 482  LLC: 2048
rand_sets[6]: 482
Assign rand_sets[7]: 1275  LLC: 2048
rand_sets[7]: 1275
Assign rand_sets[8]: 1876  LLC: 2048
rand_sets[8]: 1876
Assign rand_sets[9]: 2038  LLC: 2048
rand_sets[9]: 2038
Assign rand_sets[10]: 701  LLC: 2048
rand_sets[10]: 701
Assign rand_sets[11]: 479  LLC: 2048
rand_sets[11]: 479
Assign rand_sets[12]: 892  LLC: 2048
rand_sets[12]: 892
Assign rand_sets[13]: 1820  LLC: 2048
rand_sets[13]: 1820
Assign rand_sets[14]: 1505  LLC: 2048
rand_sets[14]: 1505
Assign rand_sets[15]: 1159  LLC: 2048
rand_sets[15]: 1159
Assign rand_sets[16]: 513  LLC: 2048
rand_sets[16]: 513
Assign rand_sets[17]: 703  LLC: 2048
rand_sets[17]: 703
Assign rand_sets[18]: 561  LLC: 2048
rand_sets[18]: 561
Assign rand_sets[19]: 990  LLC: 2048
rand_sets[19]: 990
Assign rand_sets[20]: 342  LLC: 2048
rand_sets[20]: 342
Assign rand_sets[21]: 882  LLC: 2048
rand_sets[21]: 882
Assign rand_sets[22]: 15  LLC: 2048
rand_sets[22]: 15
Assign rand_sets[23]: 71  LLC: 2048
rand_sets[23]: 71
Assign rand_sets[24]: 1127  LLC: 2048
rand_sets[24]: 1127
Assign rand_sets[25]: 1382  LLC: 2048
rand_sets[25]: 1382
Assign rand_sets[26]: 647  LLC: 2048
rand_sets[26]: 647
Assign rand_sets[27]: 857  LLC: 2048
rand_sets[27]: 857
Assign rand_sets[28]: 1450  LLC: 2048
rand_sets[28]: 1450
Assign rand_sets[29]: 1160  LLC: 2048
rand_sets[29]: 1160
Assign rand_sets[30]: 1852  LLC: 2048
rand_sets[30]: 1852
Assign rand_sets[31]: 1881  LLC: 2048
rand_sets[31]: 1881
Assign rand_sets[32]: 1770  LLC: 2048
rand_sets[32]: 1770
Assign rand_sets[33]: 1622  LLC: 2048
rand_sets[33]: 1622
Assign rand_sets[34]: 275  LLC: 2048
rand_sets[34]: 275
Assign rand_sets[35]: 635  LLC: 2048
rand_sets[35]: 635
Assign rand_sets[36]: 466  LLC: 2048
rand_sets[36]: 466
Assign rand_sets[37]: 1413  LLC: 2048
rand_sets[37]: 1413
Assign rand_sets[38]: 417  LLC: 2048
rand_sets[38]: 417
Assign rand_sets[39]: 472  LLC: 2048
rand_sets[39]: 472
Assign rand_sets[40]: 1340  LLC: 2048
rand_sets[40]: 1340
Assign rand_sets[41]: 852  LLC: 2048
rand_sets[41]: 852
Assign rand_sets[42]: 1365  LLC: 2048
rand_sets[42]: 1365
Assign rand_sets[43]: 47  LLC: 2048
rand_sets[43]: 47
Assign rand_sets[44]: 823  LLC: 2048
rand_sets[44]: 823
Assign rand_sets[45]: 686  LLC: 2048
rand_sets[45]: 686
Assign rand_sets[46]: 1637  LLC: 2048
rand_sets[46]: 1637
Assign rand_sets[47]: 1115  LLC: 2048
rand_sets[47]: 1115
Assign rand_sets[48]: 986  LLC: 2048
rand_sets[48]: 986
Assign rand_sets[49]: 258  LLC: 2048
rand_sets[49]: 258
Assign rand_sets[50]: 633  LLC: 2048
rand_sets[50]: 633
Assign rand_sets[51]: 920  LLC: 2048
rand_sets[51]: 920
Assign rand_sets[52]: 204  LLC: 2048
rand_sets[52]: 204
Assign rand_sets[53]: 227  LLC: 2048
rand_sets[53]: 227
Assign rand_sets[54]: 1818  LLC: 2048
rand_sets[54]: 1818
Assign rand_sets[55]: 886  LLC: 2048
rand_sets[55]: 886
Assign rand_sets[56]: 1422  LLC: 2048
rand_sets[56]: 1422
Assign rand_sets[57]: 607  LLC: 2048
rand_sets[57]: 607
Assign rand_sets[58]: 217  LLC: 2048
rand_sets[58]: 217
Assign rand_sets[59]: 1945  LLC: 2048
rand_sets[59]: 1945
Assign rand_sets[60]: 143  LLC: 2048
rand_sets[60]: 143
Assign rand_sets[61]: 1311  LLC: 2048
rand_sets[61]: 1311
Assign rand_sets[62]: 319  LLC: 2048
rand_sets[62]: 319
Assign rand_sets[63]: 1846  LLC: 2048
rand_sets[63]: 1846
Assign rand_sets[64]: 238  LLC: 2048
rand_sets[64]: 238
Assign rand_sets[65]: 67  LLC: 2048
rand_sets[65]: 67
Assign rand_sets[66]: 1912  LLC: 2048
rand_sets[66]: 1912
Assign rand_sets[67]: 1613  LLC: 2048
rand_sets[67]: 1613
Assign rand_sets[68]: 1293  LLC: 2048
rand_sets[68]: 1293
Assign rand_sets[69]: 1018  LLC: 2048
rand_sets[69]: 1018
Assign rand_sets[70]: 1982  LLC: 2048
rand_sets[70]: 1982
Assign rand_sets[71]: 1702  LLC: 2048
rand_sets[71]: 1702
Assign rand_sets[72]: 1498  LLC: 2048
rand_sets[72]: 1498
Assign rand_sets[73]: 228  LLC: 2048
rand_sets[73]: 228
Assign rand_sets[74]: 1414  LLC: 2048
rand_sets[74]: 1414
Assign rand_sets[75]: 1166  LLC: 2048
rand_sets[75]: 1166
Assign rand_sets[76]: 732  LLC: 2048
rand_sets[76]: 732
Assign rand_sets[77]: 297  LLC: 2048
rand_sets[77]: 297
Assign rand_sets[78]: 1133  LLC: 2048
rand_sets[78]: 1133
Assign rand_sets[79]: 846  LLC: 2048
rand_sets[79]: 846
Assign rand_sets[80]: 767  LLC: 2048
rand_sets[80]: 767
Assign rand_sets[81]: 1878  LLC: 2048
rand_sets[81]: 1878
Assign rand_sets[82]: 993  LLC: 2048
rand_sets[82]: 993
Assign rand_sets[83]: 1392  LLC: 2048
rand_sets[83]: 1392
Assign rand_sets[84]: 1568  LLC: 2048
rand_sets[84]: 1568
Assign rand_sets[85]: 1787  LLC: 2048
rand_sets[85]: 1787
Assign rand_sets[86]: 399  LLC: 2048
rand_sets[86]: 399
Assign rand_sets[87]: 1201  LLC: 2048
rand_sets[87]: 1201
Assign rand_sets[88]: 856  LLC: 2048
rand_sets[88]: 856
Assign rand_sets[89]: 773  LLC: 2048
rand_sets[89]: 773
Assign rand_sets[90]: 1680  LLC: 2048
rand_sets[90]: 1680
Assign rand_sets[91]: 1477  LLC: 2048
rand_sets[91]: 1477
Assign rand_sets[92]: 9  LLC: 2048
rand_sets[92]: 9
Assign rand_sets[93]: 1500  LLC: 2048
rand_sets[93]: 1500
Assign rand_sets[94]: 851  LLC: 2048
rand_sets[94]: 851
Assign rand_sets[95]: 973  LLC: 2048
rand_sets[95]: 973
Assign rand_sets[96]: 938  LLC: 2048
rand_sets[96]: 938
Assign rand_sets[97]: 1851  LLC: 2048
rand_sets[97]: 1851
Assign rand_sets[98]: 1608  LLC: 2048
rand_sets[98]: 1608
Assign rand_sets[99]: 1945  LLC: 2048
Assign rand_sets[99]: 1106  LLC: 2048
rand_sets[99]: 1106
Assign rand_sets[100]: 979  LLC: 2048
rand_sets[100]: 979
Assign rand_sets[101]: 338  LLC: 2048
rand_sets[101]: 338
Assign rand_sets[102]: 1693  LLC: 2048
rand_sets[102]: 1693
Assign rand_sets[103]: 6  LLC: 2048
rand_sets[103]: 6
Assign rand_sets[104]: 671  LLC: 2048
rand_sets[104]: 671
Assign rand_sets[105]: 490  LLC: 2048
rand_sets[105]: 490
Assign rand_sets[106]: 1461  LLC: 2048
rand_sets[106]: 1461
Assign rand_sets[107]: 1730  LLC: 2048
rand_sets[107]: 1730
Assign rand_sets[108]: 1030  LLC: 2048
rand_sets[108]: 1030
Assign rand_sets[109]: 19  LLC: 2048
rand_sets[109]: 19
Assign rand_sets[110]: 920  LLC: 2048
Assign rand_sets[110]: 329  LLC: 2048
rand_sets[110]: 329
Assign rand_sets[111]: 1714  LLC: 2048
rand_sets[111]: 1714
Assign rand_sets[112]: 1  LLC: 2048
rand_sets[112]: 1
Assign rand_sets[113]: 1822  LLC: 2048
rand_sets[113]: 1822
Assign rand_sets[114]: 172  LLC: 2048
rand_sets[114]: 172
Assign rand_sets[115]: 1586  LLC: 2048
rand_sets[115]: 1586
Assign rand_sets[116]: 648  LLC: 2048
rand_sets[116]: 648
Assign rand_sets[117]: 1329  LLC: 2048
rand_sets[117]: 1329
Assign rand_sets[118]: 668  LLC: 2048
rand_sets[118]: 668
Assign rand_sets[119]: 1874  LLC: 2048
rand_sets[119]: 1874
Assign rand_sets[120]: 70  LLC: 2048
rand_sets[120]: 70
Assign rand_sets[121]: 661  LLC: 2048
rand_sets[121]: 661
Assign rand_sets[122]: 1649  LLC: 2048
rand_sets[122]: 1649
Assign rand_sets[123]: 1590  LLC: 2048
rand_sets[123]: 1590
Assign rand_sets[124]: 911  LLC: 2048
rand_sets[124]: 911
Assign rand_sets[125]: 1367  LLC: 2048
rand_sets[125]: 1367
Assign rand_sets[126]: 1782  LLC: 2048
rand_sets[126]: 1782
Assign rand_sets[127]: 569  LLC: 2048
rand_sets[127]: 569
Assign rand_sets[128]: 1309  LLC: 2048
rand_sets[128]: 1309
Assign rand_sets[129]: 534  LLC: 2048
rand_sets[129]: 534
Assign rand_sets[130]: 1274  LLC: 2048
rand_sets[130]: 1274
Assign rand_sets[131]: 904  LLC: 2048
rand_sets[131]: 904
Assign rand_sets[132]: 1908  LLC: 2048
rand_sets[132]: 1908
Assign rand_sets[133]: 245  LLC: 2048
rand_sets[133]: 245
Assign rand_sets[134]: 1688  LLC: 2048
rand_sets[134]: 1688
Assign rand_sets[135]: 1660  LLC: 2048
rand_sets[135]: 1660
Assign rand_sets[136]: 1303  LLC: 2048
rand_sets[136]: 1303
Assign rand_sets[137]: 1628  LLC: 2048
rand_sets[137]: 1628
Assign rand_sets[138]: 1857  LLC: 2048
rand_sets[138]: 1857
Assign rand_sets[139]: 187  LLC: 2048
rand_sets[139]: 187
Assign rand_sets[140]: 1389  LLC: 2048
rand_sets[140]: 1389
Assign rand_sets[141]: 881  LLC: 2048
rand_sets[141]: 881
Assign rand_sets[142]: 1166  LLC: 2048
Assign rand_sets[142]: 1039  LLC: 2048
rand_sets[142]: 1039
Assign rand_sets[143]: 1136  LLC: 2048
rand_sets[143]: 1136
Assign rand_sets[144]: 601  LLC: 2048
rand_sets[144]: 601
Assign rand_sets[145]: 967  LLC: 2048
rand_sets[145]: 967
Assign rand_sets[146]: 769  LLC: 2048
rand_sets[146]: 769
Assign rand_sets[147]: 283  LLC: 2048
rand_sets[147]: 283
Assign rand_sets[148]: 559  LLC: 2048
rand_sets[148]: 559
Assign rand_sets[149]: 1075  LLC: 2048
rand_sets[149]: 1075
Assign rand_sets[150]: 829  LLC: 2048
rand_sets[150]: 829
Assign rand_sets[151]: 1681  LLC: 2048
rand_sets[151]: 1681
Assign rand_sets[152]: 1728  LLC: 2048
rand_sets[152]: 1728
Assign rand_sets[153]: 541  LLC: 2048
rand_sets[153]: 541
Assign rand_sets[154]: 421  LLC: 2048
rand_sets[154]: 421
Assign rand_sets[155]: 1037  LLC: 2048
rand_sets[155]: 1037
Assign rand_sets[156]: 13  LLC: 2048
rand_sets[156]: 13
Assign rand_sets[157]: 1707  LLC: 2048
rand_sets[157]: 1707
Assign rand_sets[158]: 1075  LLC: 2048
Assign rand_sets[158]: 1933  LLC: 2048
rand_sets[158]: 1933
Assign rand_sets[159]: 1406  LLC: 2048
rand_sets[159]: 1406
Assign rand_sets[160]: 94  LLC: 2048
rand_sets[160]: 94
Assign rand_sets[161]: 1423  LLC: 2048
rand_sets[161]: 1423
Assign rand_sets[162]: 1854  LLC: 2048
rand_sets[162]: 1854
Assign rand_sets[163]: 230  LLC: 2048
rand_sets[163]: 230
Assign rand_sets[164]: 104  LLC: 2048
rand_sets[164]: 104
Assign rand_sets[165]: 1652  LLC: 2048
rand_sets[165]: 1652
Assign rand_sets[166]: 1446  LLC: 2048
rand_sets[166]: 1446
Assign rand_sets[167]: 1338  LLC: 2048
rand_sets[167]: 1338
Assign rand_sets[168]: 177  LLC: 2048
rand_sets[168]: 177
Assign rand_sets[169]: 195  LLC: 2048
rand_sets[169]: 195
Assign rand_sets[170]: 1171  LLC: 2048
rand_sets[170]: 1171
Assign rand_sets[171]: 1297  LLC: 2048
rand_sets[171]: 1297
Assign rand_sets[172]: 1704  LLC: 2048
rand_sets[172]: 1704
Assign rand_sets[173]: 100  LLC: 2048
rand_sets[173]: 100
Assign rand_sets[174]: 711  LLC: 2048
rand_sets[174]: 711
Assign rand_sets[175]: 1243  LLC: 2048
rand_sets[175]: 1243
Assign rand_sets[176]: 1738  LLC: 2048
rand_sets[176]: 1738
Assign rand_sets[177]: 1504  LLC: 2048
rand_sets[177]: 1504
Assign rand_sets[178]: 96  LLC: 2048
rand_sets[178]: 96
Assign rand_sets[179]: 1249  LLC: 2048
rand_sets[179]: 1249
Assign rand_sets[180]: 1267  LLC: 2048
rand_sets[180]: 1267
Assign rand_sets[181]: 1727  LLC: 2048
rand_sets[181]: 1727
Assign rand_sets[182]: 1545  LLC: 2048
rand_sets[182]: 1545
Assign rand_sets[183]: 1792  LLC: 2048
rand_sets[183]: 1792
Assign rand_sets[184]: 1383  LLC: 2048
rand_sets[184]: 1383
Assign rand_sets[185]: 1954  LLC: 2048
rand_sets[185]: 1954
Assign rand_sets[186]: 739  LLC: 2048
rand_sets[186]: 739
Assign rand_sets[187]: 1061  LLC: 2048
rand_sets[187]: 1061
Assign rand_sets[188]: 672  LLC: 2048
rand_sets[188]: 672
Assign rand_sets[189]: 1057  LLC: 2048
rand_sets[189]: 1057
Assign rand_sets[190]: 1329  LLC: 2048
Assign rand_sets[190]: 1415  LLC: 2048
rand_sets[190]: 1415
Assign rand_sets[191]: 981  LLC: 2048
rand_sets[191]: 981
Assign rand_sets[192]: 98  LLC: 2048
rand_sets[192]: 98
Assign rand_sets[193]: 453  LLC: 2048
rand_sets[193]: 453
Assign rand_sets[194]: 1448  LLC: 2048
rand_sets[194]: 1448
Assign rand_sets[195]: 79  LLC: 2048
rand_sets[195]: 79
Assign rand_sets[196]: 126  LLC: 2048
rand_sets[196]: 126
Assign rand_sets[197]: 1582  LLC: 2048
rand_sets[197]: 1582
Assign rand_sets[198]: 1289  LLC: 2048
rand_sets[198]: 1289
Assign rand_sets[199]: 875  LLC: 2048
rand_sets[199]: 875
Assign rand_sets[200]: 404  LLC: 2048
rand_sets[200]: 404
Assign rand_sets[201]: 415  LLC: 2048
rand_sets[201]: 415
Assign rand_sets[202]: 1712  LLC: 2048
rand_sets[202]: 1712
Assign rand_sets[203]: 1389  LLC: 2048
Assign rand_sets[203]: 169  LLC: 2048
rand_sets[203]: 169
Assign rand_sets[204]: 158  LLC: 2048
rand_sets[204]: 158
Assign rand_sets[205]: 90  LLC: 2048
rand_sets[205]: 90
Assign rand_sets[206]: 1291  LLC: 2048
rand_sets[206]: 1291
Assign rand_sets[207]: 838  LLC: 2048
rand_sets[207]: 838
Assign rand_sets[208]: 1904  LLC: 2048
rand_sets[208]: 1904
Assign rand_sets[209]: 640  LLC: 2048
rand_sets[209]: 640
Assign rand_sets[210]: 1462  LLC: 2048
rand_sets[210]: 1462
Assign rand_sets[211]: 1487  LLC: 2048
rand_sets[211]: 1487
Assign rand_sets[212]: 1863  LLC: 2048
rand_sets[212]: 1863
Assign rand_sets[213]: 1036  LLC: 2048
rand_sets[213]: 1036
Assign rand_sets[214]: 1702  LLC: 2048
Assign rand_sets[214]: 933  LLC: 2048
rand_sets[214]: 933
Assign rand_sets[215]: 554  LLC: 2048
rand_sets[215]: 554
Assign rand_sets[216]: 1496  LLC: 2048
rand_sets[216]: 1496
Assign rand_sets[217]: 1708  LLC: 2048
rand_sets[217]: 1708
Assign rand_sets[218]: 1275  LLC: 2048
Assign rand_sets[218]: 416  LLC: 2048
rand_sets[218]: 416
Assign rand_sets[219]: 491  LLC: 2048
rand_sets[219]: 491
Assign rand_sets[220]: 183  LLC: 2048
rand_sets[220]: 183
Assign rand_sets[221]: 1657  LLC: 2048
rand_sets[221]: 1657
Assign rand_sets[222]: 1060  LLC: 2048
rand_sets[222]: 1060
Assign rand_sets[223]: 626  LLC: 2048
rand_sets[223]: 626
Assign rand_sets[224]: 1315  LLC: 2048
rand_sets[224]: 1315
Assign rand_sets[225]: 1682  LLC: 2048
rand_sets[225]: 1682
Assign rand_sets[226]: 1352  LLC: 2048
rand_sets[226]: 1352
Assign rand_sets[227]: 1152  LLC: 2048
rand_sets[227]: 1152
Assign rand_sets[228]: 965  LLC: 2048
rand_sets[228]: 965
Assign rand_sets[229]: 1190  LLC: 2048
rand_sets[229]: 1190
Assign rand_sets[230]: 1191  LLC: 2048
rand_sets[230]: 1191
Assign rand_sets[231]: 645  LLC: 2048
rand_sets[231]: 645
Assign rand_sets[232]: 695  LLC: 2048
rand_sets[232]: 695
Assign rand_sets[233]: 1495  LLC: 2048
rand_sets[233]: 1495
Assign rand_sets[234]: 1932  LLC: 2048
rand_sets[234]: 1932
Assign rand_sets[235]: 656  LLC: 2048
rand_sets[235]: 656
Assign rand_sets[236]: 1508  LLC: 2048
rand_sets[236]: 1508
Assign rand_sets[237]: 939  LLC: 2048
rand_sets[237]: 939
Assign rand_sets[238]: 355  LLC: 2048
rand_sets[238]: 355
Assign rand_sets[239]: 1092  LLC: 2048
rand_sets[239]: 1092
Assign rand_sets[240]: 850  LLC: 2048
rand_sets[240]: 850
Assign rand_sets[241]: 102  LLC: 2048
rand_sets[241]: 102
Assign rand_sets[242]: 1763  LLC: 2048
rand_sets[242]: 1763
Assign rand_sets[243]: 668  LLC: 2048
Assign rand_sets[243]: 51  LLC: 2048
rand_sets[243]: 51
Assign rand_sets[244]: 1317  LLC: 2048
rand_sets[244]: 1317
Assign rand_sets[245]: 2041  LLC: 2048
rand_sets[245]: 2041
Assign rand_sets[246]: 1374  LLC: 2048
rand_sets[246]: 1374
Assign rand_sets[247]: 682  LLC: 2048
rand_sets[247]: 682
Assign rand_sets[248]: 1466  LLC: 2048
rand_sets[248]: 1466
Assign rand_sets[249]: 1139  LLC: 2048
rand_sets[249]: 1139
Assign rand_sets[250]: 1632  LLC: 2048
rand_sets[250]: 1632
Assign rand_sets[251]: 1117  LLC: 2048
rand_sets[251]: 1117
Assign rand_sets[252]: 1611  LLC: 2048
rand_sets[252]: 1611
Assign rand_sets[253]: 1905  LLC: 2048
rand_sets[253]: 1905
Assign rand_sets[254]: 1662  LLC: 2048
Assign rand_sets[254]: 446  LLC: 2048
rand_sets[254]: 446
Assign rand_sets[255]: 1705  LLC: 2048
rand_sets[255]: 1705

Warmup complete CPU 0 instructions: 1000001 cycles: 530070 (Simulation time: 0 hr 0 min 1 sec) 

Heartbeat CPU 0 instructions: 10000002 cycles: 15570992 heartbeat IPC: 0.64222 cumulative IPC: 0.598368 (Simulation time: 0 hr 0 min 16 sec) 
Heartbeat CPU 0 instructions: 20000001 cycles: 32777241 heartbeat IPC: 0.581184 cumulative IPC: 0.589199 (Simulation time: 0 hr 0 min 32 sec) 
Heartbeat CPU 0 instructions: 30000002 cycles: 55404821 heartbeat IPC: 0.441939 cumulative IPC: 0.528476 (Simulation time: 0 hr 0 min 50 sec) 
Heartbeat CPU 0 instructions: 40000002 cycles: 73389074 heartbeat IPC: 0.556042 cumulative IPC: 0.53528 (Simulation time: 0 hr 1 min 7 sec) 
Heartbeat CPU 0 instructions: 50000002 cycles: 90010861 heartbeat IPC: 0.60162 cumulative IPC: 0.547604 (Simulation time: 0 hr 1 min 24 sec) 
Finished CPU 0 instructions: 50000003 cycles: 91123036 cumulative IPC: 0.548709 (Simulation time: 0 hr 1 min 26 sec) 

ChampSim completed all CPUs

Region of Interest Statistics

CPU 0 cumulative IPC: 0.548709 instructions: 50000003 cycles: 91123036
L1D TOTAL     ACCESS:   11992412  HIT:    9464252  MISS:    2528160
L1D LOAD      ACCESS:    8220301  HIT:    5784419  MISS:    2435882
L1D RFO       ACCESS:    3772111  HIT:    3679833  MISS:      92278
L1D PREFETCH  ACCESS:          0  HIT:          0  MISS:          0
L1D WRITEBACK ACCESS:          0  HIT:          0  MISS:          0
L1D PREFETCH  REQUESTED:          0  ISSUED:          0  USEFUL:          0  USELESS:          0
L1D AVERAGE MISS LATENCY: 40.5524 cycles
L1I TOTAL     ACCESS:   14556288  HIT:   14410838  MISS:     145450
L1I LOAD      ACCESS:   14556288  HIT:   14410838  MISS:     145450
L1I RFO       ACCESS:          0  HIT:          0  MISS:          0
L1I PREFETCH  ACCESS:          0  HIT:          0  MISS:          0
L1I WRITEBACK ACCESS:          0  HIT:          0  MISS:          0
L1I PREFETCH  REQUESTED:          0  ISSUED:          0  USEFUL:          0  USELESS:          0
L1I AVERAGE MISS LATENCY: 17.5197 cycles
L2C TOTAL     ACCESS:    9629548  HIT:    4098398  MISS:    5531150
L2C LOAD      ACCESS:    2581302  HIT:     903741  MISS:    1677561
L2C RFO       ACCESS:      92270  HIT:      19124  MISS:      73146
L2C PREFETCH  ACCESS:    6810909  HIT:    3032363  MISS:    3778546
L2C WRITEBACK ACCESS:     145067  HIT:     143170  MISS:       1897
L2C PREFETCH  REQUESTED:    8450890  ISSUED:    8448771  USEFUL:     447100  USELESS:    3331263
L2C AVERAGE MISS LATENCY: 35.0983 cycles
LLC TOTAL     ACCESS:    5650971  HIT:    5528054  MISS:     122917
LLC LOAD      ACCESS:    1645810  HIT:    1635001  MISS:      10809
LLC RFO       ACCESS:      71642  HIT:      11289  MISS:      60353
LLC PREFETCH  ACCESS:    3811801  HIT:    3760889  MISS:      50912
LLC WRITEBACK ACCESS:     121718  HIT:     120875  MISS:        843
LLC PREFETCH  REQUESTED:          0  ISSUED:          0  USEFUL:       5824  USELESS:      39075
LLC AVERAGE MISS LATENCY: 164.738 cycles
Major fault: 0 Minor fault: 3466
CPU 0 L2C BOP prefetcher final stats
bop_end_phase_max_round 22057
bop_end_phase_max_score 6630
bop_total_phases 28687
bop_fill_called 5620276
bop_fill_insert_rr 5620276
bop_insert_rr_hit 0
bop_insert_rr_evict 5620020
bop_insert_rr_insert 5620276
bop_pref_buffer_buffered 0
bop_pref_buffer_spilled 0
bop_pref_buffer_issued 0
bop_pref_issued 8587643

Entry 0:   0x1b1bc79162a
Entry 1:   0xa3a0df1af2
Entry 2:   0xa3a0df1af5
Entry 3:   0xa3a0df3175
Entry 4:   0xa3a0df3178
Entry 5:   0xa3a0df317b
Entry 6:   0xa3a0df1bd6
Entry 7:   0xa3a0df1bd9
Entry 8:   0xa3a0df1af8
Entry 9:   0xa3a0df1af3
Entry 10:   0xa3a0df1af6
Entry 11:   0xa3a0df1af9
Entry 12:   0xa3a0df27d6
Entry 13:   0xa3a0df27d9
Entry 14:   0xa3a0df27dc
Entry 15:   0xa3a0df27d7
Entry 16:   0xa3a0df27da
Entry 17:   0xa3a0df27dd
Entry 18:   0xa3a0df2acb
Entry 19:   0xa3a0df2ace
Entry 20:   0xa3a0df2ad1
Entry 21:   0xa3a0df2438
Entry 22:   0xa3a0df243b
Entry 23:   0xa3a0df243e
Entry 24:   0xa3a0df27cb
Entry 25:   0xa3a0df2355
Entry 26:   0xa3a0df2358
Entry 27:   0xa3a0df235b
Entry 28:   0xa3a0df2356
Entry 29:   0xa3a0df2359
Entry 30:   0xa3a0df235c
Entry 31:   0xa3a0df2b87
Entry 32:   0xa3a0df2b8a
Entry 33:   0xa3a0df2b88
Entry 34:   0xa3a0df1eaf
Entry 35:   0xa3a0df2315
Entry 36:   0xa3a0df2318
Entry 37:   0xa3a0df231b
Entry 38:   0xa3a0df2079
Entry 39:   0xa3a0df29d7
Entry 40:   0x262383cff4a
Entry 41:   0xa3a0df32e6
Entry 42:   0xa3a0df1bf4
Entry 43:   0xa3a0df2f25
Entry 44:   0xa3a0df2f28
Entry 45:   0xa3a0df2f2b
Entry 46:   0xa3a0df2ee5
Entry 47:   0xa3a0df2ee8
Entry 48:   0xa3a0df2ee6
Entry 49:   0xa3a0df2ee9
Entry 50:   0xa3a0df32f4
Entry 51:   0xa3a0df32f5
Entry 52:   0xa3a0df31d6
Entry 53:   0xa3a0df31d9
Entry 54:   0xa3a0df31dc
Entry 55:   0xa3a0df31d7
Entry 56:   0xa3a0df31da
Entry 57:   0xa3a0df31dd
Entry 58:   0xa3a0df2f07
Entry 59:   0xa3a0df2f0a
Entry 60:   0xa3a0df2f0d
Entry 61:   0xa3a0df33eb
Entry 62:   0xa3a0df33ee
Entry 63:   0xa3a0df33f1
Entry 64:   0xa3a0df32f7
Entry 65:   0xa3a0df32fa
Entry 66:   0xa3a0df32f8
Entry 67:   0xa3a0df32fb
Entry 68:   0xa3a0df340b
Entry 69:   0xa3a0df340e
Entry 70:   0xa3a0df3411
Entry 71:   0xa3a0df32e7
Entry 72:   0xa3a0df32f6
Entry 73:   0xa3a0df33ea
Entry 74:   0xa3a0df33ed
Entry 75:   0xa3a0df33f0
Entry 76:   0xa3a0df34a8
Entry 77:   0xa3a0df34ab
Entry 78:   0xa3a0df34ae
Entry 79:   0xa3a0df3475
Entry 80:   0xa3a0df3478
Entry 81:   0xa3a0df3473
Entry 82:   0xa3a0df3476
Entry 83:   0xa3a0df3479
Entry 84:   0xa3a0df34a9
Entry 85:   0xa3a0df34ac
Entry 86:   0xa3a0df34af
Entry 87:   0xa3a0df1a6f
Entry 88:   0xa3a0df1a72
Entry 89:   0xa3a0df1a75
Entry 90:   0xa3a0df1732
Entry 91:   0xa3a0df1735
Entry 92:   0xa3a0df1738
Entry 93:   0xa3a0df1733
Entry 94:   0xa3a0df1736
Entry 95:   0xa3a0df1739
Entry 96:   0x99c4f1043b
Entry 97:   0x99c4f1043e
Entry 98:   0x99c4f1043c
Entry 99:   0x99c4f10473
Entry 100:   0x3880cb5ef47
Entry 101:   0x3880cb5ef4a
Entry 102:   0x99c4f1043f
Entry 103:   0x99c4f1046a
Entry 104:   0x99c4f1046d
Entry 105:   0x99c4f10470
Entry 106:   0x99c4f10467
Entry 107:   0x99c4f10772
Entry 108:   0x99c4f10778
Entry 109:   0xa3a0df3474
Entry 110:   0xa3a0df3477
Entry 111:   0xa3a0df347a
Entry 112:   0xa3a0df1b2f
Entry 113:   0xa3a0df1b32
Entry 114:   0xa3a0df1d33
Entry 115:   0x99c4f10775
Entry 116:   0x1b1bc7915bd
Entry 117:   0xa3a0df1b18
Entry 118:   0xa3a0df1b3a
Entry 119:   0xa3a0df1b3d
Entry 120:   0xa3a0df2e16
Entry 121:   0xa3a0df2e19
Entry 122:   0xa3a0df2e1c
Entry 123:   0xa3a0df2e33
Entry 124:   0xa3a0df2e36
Entry 125:   0xa3a0df2e39
Entry 126:   0xa3a0df1ebb
Entry 127:   0xa3a0df1ebe
Entry 128:   0xa3a0df2ee4
Entry 129:   0xa3a0df2ee7
Entry 130:   0xa3a0df2eea
Entry 131:   0xa3a0df2eeb
Entry 132:   0xa3a0df25fe
Entry 133:   0xa3a0df25ee
Entry 134:   0xa3a0df25ff
Entry 135:   0xa3a0df360b
Entry 136:   0xa3a0df3611
Entry 137:   0xa3a0df365f
Entry 138:   0xa3a0df3662
Entry 139:   0xa3a0df3665
Entry 140:   0x99c4f12497
Entry 141:   0x99c4f12498
Entry 142:   0x99c4f1249a
Entry 143:   0x99c4f1249d
Entry 144:   0x99c4f124a3
Entry 145:   0x99c4f1249e
Entry 146:   0x99c4f124a1
Entry 147:   0x99c4f124a4
Entry 148:   0x99c4f124a0
Entry 149:   0x99c4f1249b
Entry 150:   0x99c4f124a7
Entry 151:   0x99c4f124aa
Entry 152:   0x99c4f124ad
Entry 153:   0x99c4f124a2
Entry 154:   0x1b1bc79162b
Entry 155:   0xa3a0df3727
Entry 156:   0xa3a0df372a
Entry 157:   0xa3a0df372d
Entry 158:   0xa3a0df2f9b
Entry 159:   0xa3a0df2f9e
Entry 160:   0xa3a0df2fa1
Entry 161:   0xa3a0df2f9a
Entry 162:   0xa3a0df2f9d
Entry 163:   0xa3a0df2fa0
Entry 164:   0xa3a0df32d1
Entry 165:   0xa3a0df1eba
Entry 166:   0xa3a0df1ebd
Entry 167:   0xa3a0df1a90
Entry 168:   0xa3a0df1a94
Entry 169:   0xa3a0df1a98
Entry 170:   0x99c4f124ab
Entry 171:   0x99c4f124af
Entry 172:   0x99c4f124b3
Entry 173:   0xa3a0df1897
Entry 174:   0xa3a0df189b
Entry 175:   0xa3a0df189f
Entry 176:   0x99c4f10bbc
Entry 177:   0xa3a0df1899
Entry 178:   0xa3a0df189d
Entry 179:   0xa3a0df18a1
Entry 180:   0xa3a0df1898
Entry 181:   0xa3a0df189c
Entry 182:   0xa3a0df18a0
Entry 183:   0xa3a0df24d8
Entry 184:   0xa3a0df24dc
Entry 185:   0xa3a0df24e0
Entry 186:   0xa3a0df24d9
Entry 187:   0xa3a0df24dd
Entry 188:   0xa3a0df24e1
Entry 189:   0xa3a0df19cb
Entry 190:   0xa3a0df19cf
Entry 191:   0xa3a0df19d3
Entry 192:   0x95eea1c49c
Entry 193:   0x95eea1c4a0
Entry 194:   0x95eea1c4a4
Entry 195:   0xa3a0df19e9
Entry 196:   0xa3a0df19ed
Entry 197:   0xa3a0df19f1
Entry 198:   0x262383d0ae0
Entry 199:   0x262383d0ae4
Entry 200:   0x95eea1c4a8
Entry 201:   0xa3a0df34d0
Entry 202:   0xa3a0df34d4
Entry 203:   0xa3a0df34d8
Entry 204:   0x262383d0ae8
Entry 205:   0x262383d0e1d
Entry 206:   0x262383d0e1e
Entry 207:   0x262383d0df7
Entry 208:   0x262383d0df9
Entry 209:   0x262383d0dfa
Entry 210:   0x262383d0dfc
Entry 211:   0x262383d0dff
Entry 212:   0x262383d0df8
Entry 213:   0x262383d0e01
Entry 214:   0x262383d0e02
Entry 215:   0x262383d0e04
Entry 216:   0x262383d0e07
Entry 217:   0x262383d0e00
Entry 218:   0x262383d0e09
Entry 219:   0x262383d0dfb
Entry 220:   0x262383d0dfd
Entry 221:   0x262383d0dfe
Entry 222:   0x262383d0e0a
Entry 223:   0x262383d0e08
Entry 224:   0x262383d0e0c
Entry 225:   0x262383d0e03
Entry 226:   0x262383d0e05
Entry 227:   0x262383d0e06
Entry 228:   0x262383d0e0f
Entry 229:   0x262383d0e10
Entry 230:   0x262383d0e0b
Entry 231:   0x262383d0e11
Entry 232:   0x262383d0e0d
Entry 233:   0x262383d0e12
Entry 234:   0x262383d0e0e
Entry 235:   0x262383d0e14
Entry 236:   0x262383d0e17
Entry 237:   0x262383d0e13
Entry 238:   0x262383d0e18
Entry 239:   0x262383d0e19
Entry 240:   0x262383d0e15
Entry 241:   0x262383d0e1a
Entry 242:   0x262383d0e16
Entry 243:   0x262383d0e1c
Entry 244:   0x262383d0e1b
Entry 245:   0x99c4f10bbd
Entry 246:   0x1b1bc791623
Entry 247:   0x1b1bc79162f
Entry 248:   0x1b1bc791633
Entry 249:   0xa3a0df1b22
Entry 250:   0xa3a0df1b26
Entry 251:   0xa3a0df1ff3
Entry 252:   0xa3a0df1ff7
Entry 253:   0xa3a0df1ffb
Entry 254:   0xa3a0df1fba
Entry 255:   0xa3a0df1fbe

DRAM Statistics
 CHANNEL 0
 RQ ROW_BUFFER_HIT:      49529  ROW_BUFFER_MISS:      72544
 DBUS_CONGESTED:      87429
 WQ ROW_BUFFER_HIT:      10312  ROW_BUFFER_MISS:      51625  FULL:          0

 AVG_CONGESTED_CYCLE: 6

CPU 0 Branch Prediction Accuracy: 99.2975% MPKI: 1.95904 Average ROB Occupancy at Mispredict: 131.184

Branch types
NOT_BRANCH: 36057468 72.1149%
BRANCH_DIRECT_JUMP: 406980 0.81396%
BRANCH_INDIRECT: 153071 0.306142%
BRANCH_CONDITIONAL: 11610125 23.2202%
BRANCH_DIRECT_CALL: 569380 1.13876%
BRANCH_INDIRECT_CALL: 316798 0.633596%
BRANCH_RETURN: 886178 1.77236%
BRANCH_OTHER: 0 0%

