
*** ChampSim Multicore Out-of-Order Simulator ***

Warmup Instructions: 1000000
Simulation Instructions: 50000000
Number of CPUs: 1
LLC sets: 2048
LLC ways: 16
Off-chip DRAM Size: 4096 MB Channels: 1 Width: 64-bit Data Rate: 3200 MT/s

CPU 0 runs /home/carter/Documents/Homework/Carter-Owens-ECE-Workbook-Spring-2025/ECE-5750-Architecture/assignments/ChampSim/dpc3_traces/627.cam4_s-573B.champsimtrace.xz
CPU 0 L2C Best Offset prefetcher
Initialize SHIP state
Assign rand_sets[0]: 454  LLC: 2048
rand_sets[0]: 454
Assign rand_sets[1]: 1662  LLC: 2048
rand_sets[1]: 1662
Assign rand_sets[2]: 1921  LLC: 2048
rand_sets[2]: 1921
Assign rand_sets[3]: 1131  LLC: 2048
rand_sets[3]: 1131
Assign rand_sets[4]: 331  LLC: 2048
rand_sets[4]: 331
Assign rand_sets[5]: 1531  LLC: 2048
rand_sets[5]: 1531
Assign rand_sets[6]: 482  LLC: 2048
rand_sets[6]: 482
Assign rand_sets[7]: 1275  LLC: 2048
rand_sets[7]: 1275
Assign rand_sets[8]: 1876  LLC: 2048
rand_sets[8]: 1876
Assign rand_sets[9]: 2038  LLC: 2048
rand_sets[9]: 2038
Assign rand_sets[10]: 701  LLC: 2048
rand_sets[10]: 701
Assign rand_sets[11]: 479  LLC: 2048
rand_sets[11]: 479
Assign rand_sets[12]: 892  LLC: 2048
rand_sets[12]: 892
Assign rand_sets[13]: 1820  LLC: 2048
rand_sets[13]: 1820
Assign rand_sets[14]: 1505  LLC: 2048
rand_sets[14]: 1505
Assign rand_sets[15]: 1159  LLC: 2048
rand_sets[15]: 1159
Assign rand_sets[16]: 513  LLC: 2048
rand_sets[16]: 513
Assign rand_sets[17]: 703  LLC: 2048
rand_sets[17]: 703
Assign rand_sets[18]: 561  LLC: 2048
rand_sets[18]: 561
Assign rand_sets[19]: 990  LLC: 2048
rand_sets[19]: 990
Assign rand_sets[20]: 342  LLC: 2048
rand_sets[20]: 342
Assign rand_sets[21]: 882  LLC: 2048
rand_sets[21]: 882
Assign rand_sets[22]: 15  LLC: 2048
rand_sets[22]: 15
Assign rand_sets[23]: 71  LLC: 2048
rand_sets[23]: 71
Assign rand_sets[24]: 1127  LLC: 2048
rand_sets[24]: 1127
Assign rand_sets[25]: 1382  LLC: 2048
rand_sets[25]: 1382
Assign rand_sets[26]: 647  LLC: 2048
rand_sets[26]: 647
Assign rand_sets[27]: 857  LLC: 2048
rand_sets[27]: 857
Assign rand_sets[28]: 1450  LLC: 2048
rand_sets[28]: 1450
Assign rand_sets[29]: 1160  LLC: 2048
rand_sets[29]: 1160
Assign rand_sets[30]: 1852  LLC: 2048
rand_sets[30]: 1852
Assign rand_sets[31]: 1881  LLC: 2048
rand_sets[31]: 1881
Assign rand_sets[32]: 1770  LLC: 2048
rand_sets[32]: 1770
Assign rand_sets[33]: 1622  LLC: 2048
rand_sets[33]: 1622
Assign rand_sets[34]: 275  LLC: 2048
rand_sets[34]: 275
Assign rand_sets[35]: 635  LLC: 2048
rand_sets[35]: 635
Assign rand_sets[36]: 466  LLC: 2048
rand_sets[36]: 466
Assign rand_sets[37]: 1413  LLC: 2048
rand_sets[37]: 1413
Assign rand_sets[38]: 417  LLC: 2048
rand_sets[38]: 417
Assign rand_sets[39]: 472  LLC: 2048
rand_sets[39]: 472
Assign rand_sets[40]: 1340  LLC: 2048
rand_sets[40]: 1340
Assign rand_sets[41]: 852  LLC: 2048
rand_sets[41]: 852
Assign rand_sets[42]: 1365  LLC: 2048
rand_sets[42]: 1365
Assign rand_sets[43]: 47  LLC: 2048
rand_sets[43]: 47
Assign rand_sets[44]: 823  LLC: 2048
rand_sets[44]: 823
Assign rand_sets[45]: 686  LLC: 2048
rand_sets[45]: 686
Assign rand_sets[46]: 1637  LLC: 2048
rand_sets[46]: 1637
Assign rand_sets[47]: 1115  LLC: 2048
rand_sets[47]: 1115
Assign rand_sets[48]: 986  LLC: 2048
rand_sets[48]: 986
Assign rand_sets[49]: 258  LLC: 2048
rand_sets[49]: 258
Assign rand_sets[50]: 633  LLC: 2048
rand_sets[50]: 633
Assign rand_sets[51]: 920  LLC: 2048
rand_sets[51]: 920
Assign rand_sets[52]: 204  LLC: 2048
rand_sets[52]: 204
Assign rand_sets[53]: 227  LLC: 2048
rand_sets[53]: 227
Assign rand_sets[54]: 1818  LLC: 2048
rand_sets[54]: 1818
Assign rand_sets[55]: 886  LLC: 2048
rand_sets[55]: 886
Assign rand_sets[56]: 1422  LLC: 2048
rand_sets[56]: 1422
Assign rand_sets[57]: 607  LLC: 2048
rand_sets[57]: 607
Assign rand_sets[58]: 217  LLC: 2048
rand_sets[58]: 217
Assign rand_sets[59]: 1945  LLC: 2048
rand_sets[59]: 1945
Assign rand_sets[60]: 143  LLC: 2048
rand_sets[60]: 143
Assign rand_sets[61]: 1311  LLC: 2048
rand_sets[61]: 1311
Assign rand_sets[62]: 319  LLC: 2048
rand_sets[62]: 319
Assign rand_sets[63]: 1846  LLC: 2048
rand_sets[63]: 1846
Assign rand_sets[64]: 238  LLC: 2048
rand_sets[64]: 238
Assign rand_sets[65]: 67  LLC: 2048
rand_sets[65]: 67
Assign rand_sets[66]: 1912  LLC: 2048
rand_sets[66]: 1912
Assign rand_sets[67]: 1613  LLC: 2048
rand_sets[67]: 1613
Assign rand_sets[68]: 1293  LLC: 2048
rand_sets[68]: 1293
Assign rand_sets[69]: 1018  LLC: 2048
rand_sets[69]: 1018
Assign rand_sets[70]: 1982  LLC: 2048
rand_sets[70]: 1982
Assign rand_sets[71]: 1702  LLC: 2048
rand_sets[71]: 1702
Assign rand_sets[72]: 1498  LLC: 2048
rand_sets[72]: 1498
Assign rand_sets[73]: 228  LLC: 2048
rand_sets[73]: 228
Assign rand_sets[74]: 1414  LLC: 2048
rand_sets[74]: 1414
Assign rand_sets[75]: 1166  LLC: 2048
rand_sets[75]: 1166
Assign rand_sets[76]: 732  LLC: 2048
rand_sets[76]: 732
Assign rand_sets[77]: 297  LLC: 2048
rand_sets[77]: 297
Assign rand_sets[78]: 1133  LLC: 2048
rand_sets[78]: 1133
Assign rand_sets[79]: 846  LLC: 2048
rand_sets[79]: 846
Assign rand_sets[80]: 767  LLC: 2048
rand_sets[80]: 767
Assign rand_sets[81]: 1878  LLC: 2048
rand_sets[81]: 1878
Assign rand_sets[82]: 993  LLC: 2048
rand_sets[82]: 993
Assign rand_sets[83]: 1392  LLC: 2048
rand_sets[83]: 1392
Assign rand_sets[84]: 1568  LLC: 2048
rand_sets[84]: 1568
Assign rand_sets[85]: 1787  LLC: 2048
rand_sets[85]: 1787
Assign rand_sets[86]: 399  LLC: 2048
rand_sets[86]: 399
Assign rand_sets[87]: 1201  LLC: 2048
rand_sets[87]: 1201
Assign rand_sets[88]: 856  LLC: 2048
rand_sets[88]: 856
Assign rand_sets[89]: 773  LLC: 2048
rand_sets[89]: 773
Assign rand_sets[90]: 1680  LLC: 2048
rand_sets[90]: 1680
Assign rand_sets[91]: 1477  LLC: 2048
rand_sets[91]: 1477
Assign rand_sets[92]: 9  LLC: 2048
rand_sets[92]: 9
Assign rand_sets[93]: 1500  LLC: 2048
rand_sets[93]: 1500
Assign rand_sets[94]: 851  LLC: 2048
rand_sets[94]: 851
Assign rand_sets[95]: 973  LLC: 2048
rand_sets[95]: 973
Assign rand_sets[96]: 938  LLC: 2048
rand_sets[96]: 938
Assign rand_sets[97]: 1851  LLC: 2048
rand_sets[97]: 1851
Assign rand_sets[98]: 1608  LLC: 2048
rand_sets[98]: 1608
Assign rand_sets[99]: 1945  LLC: 2048
Assign rand_sets[99]: 1106  LLC: 2048
rand_sets[99]: 1106
Assign rand_sets[100]: 979  LLC: 2048
rand_sets[100]: 979
Assign rand_sets[101]: 338  LLC: 2048
rand_sets[101]: 338
Assign rand_sets[102]: 1693  LLC: 2048
rand_sets[102]: 1693
Assign rand_sets[103]: 6  LLC: 2048
rand_sets[103]: 6
Assign rand_sets[104]: 671  LLC: 2048
rand_sets[104]: 671
Assign rand_sets[105]: 490  LLC: 2048
rand_sets[105]: 490
Assign rand_sets[106]: 1461  LLC: 2048
rand_sets[106]: 1461
Assign rand_sets[107]: 1730  LLC: 2048
rand_sets[107]: 1730
Assign rand_sets[108]: 1030  LLC: 2048
rand_sets[108]: 1030
Assign rand_sets[109]: 19  LLC: 2048
rand_sets[109]: 19
Assign rand_sets[110]: 920  LLC: 2048
Assign rand_sets[110]: 329  LLC: 2048
rand_sets[110]: 329
Assign rand_sets[111]: 1714  LLC: 2048
rand_sets[111]: 1714
Assign rand_sets[112]: 1  LLC: 2048
rand_sets[112]: 1
Assign rand_sets[113]: 1822  LLC: 2048
rand_sets[113]: 1822
Assign rand_sets[114]: 172  LLC: 2048
rand_sets[114]: 172
Assign rand_sets[115]: 1586  LLC: 2048
rand_sets[115]: 1586
Assign rand_sets[116]: 648  LLC: 2048
rand_sets[116]: 648
Assign rand_sets[117]: 1329  LLC: 2048
rand_sets[117]: 1329
Assign rand_sets[118]: 668  LLC: 2048
rand_sets[118]: 668
Assign rand_sets[119]: 1874  LLC: 2048
rand_sets[119]: 1874
Assign rand_sets[120]: 70  LLC: 2048
rand_sets[120]: 70
Assign rand_sets[121]: 661  LLC: 2048
rand_sets[121]: 661
Assign rand_sets[122]: 1649  LLC: 2048
rand_sets[122]: 1649
Assign rand_sets[123]: 1590  LLC: 2048
rand_sets[123]: 1590
Assign rand_sets[124]: 911  LLC: 2048
rand_sets[124]: 911
Assign rand_sets[125]: 1367  LLC: 2048
rand_sets[125]: 1367
Assign rand_sets[126]: 1782  LLC: 2048
rand_sets[126]: 1782
Assign rand_sets[127]: 569  LLC: 2048
rand_sets[127]: 569
Assign rand_sets[128]: 1309  LLC: 2048
rand_sets[128]: 1309
Assign rand_sets[129]: 534  LLC: 2048
rand_sets[129]: 534
Assign rand_sets[130]: 1274  LLC: 2048
rand_sets[130]: 1274
Assign rand_sets[131]: 904  LLC: 2048
rand_sets[131]: 904
Assign rand_sets[132]: 1908  LLC: 2048
rand_sets[132]: 1908
Assign rand_sets[133]: 245  LLC: 2048
rand_sets[133]: 245
Assign rand_sets[134]: 1688  LLC: 2048
rand_sets[134]: 1688
Assign rand_sets[135]: 1660  LLC: 2048
rand_sets[135]: 1660
Assign rand_sets[136]: 1303  LLC: 2048
rand_sets[136]: 1303
Assign rand_sets[137]: 1628  LLC: 2048
rand_sets[137]: 1628
Assign rand_sets[138]: 1857  LLC: 2048
rand_sets[138]: 1857
Assign rand_sets[139]: 187  LLC: 2048
rand_sets[139]: 187
Assign rand_sets[140]: 1389  LLC: 2048
rand_sets[140]: 1389
Assign rand_sets[141]: 881  LLC: 2048
rand_sets[141]: 881
Assign rand_sets[142]: 1166  LLC: 2048
Assign rand_sets[142]: 1039  LLC: 2048
rand_sets[142]: 1039
Assign rand_sets[143]: 1136  LLC: 2048
rand_sets[143]: 1136
Assign rand_sets[144]: 601  LLC: 2048
rand_sets[144]: 601
Assign rand_sets[145]: 967  LLC: 2048
rand_sets[145]: 967
Assign rand_sets[146]: 769  LLC: 2048
rand_sets[146]: 769
Assign rand_sets[147]: 283  LLC: 2048
rand_sets[147]: 283
Assign rand_sets[148]: 559  LLC: 2048
rand_sets[148]: 559
Assign rand_sets[149]: 1075  LLC: 2048
rand_sets[149]: 1075
Assign rand_sets[150]: 829  LLC: 2048
rand_sets[150]: 829
Assign rand_sets[151]: 1681  LLC: 2048
rand_sets[151]: 1681
Assign rand_sets[152]: 1728  LLC: 2048
rand_sets[152]: 1728
Assign rand_sets[153]: 541  LLC: 2048
rand_sets[153]: 541
Assign rand_sets[154]: 421  LLC: 2048
rand_sets[154]: 421
Assign rand_sets[155]: 1037  LLC: 2048
rand_sets[155]: 1037
Assign rand_sets[156]: 13  LLC: 2048
rand_sets[156]: 13
Assign rand_sets[157]: 1707  LLC: 2048
rand_sets[157]: 1707
Assign rand_sets[158]: 1075  LLC: 2048
Assign rand_sets[158]: 1933  LLC: 2048
rand_sets[158]: 1933
Assign rand_sets[159]: 1406  LLC: 2048
rand_sets[159]: 1406
Assign rand_sets[160]: 94  LLC: 2048
rand_sets[160]: 94
Assign rand_sets[161]: 1423  LLC: 2048
rand_sets[161]: 1423
Assign rand_sets[162]: 1854  LLC: 2048
rand_sets[162]: 1854
Assign rand_sets[163]: 230  LLC: 2048
rand_sets[163]: 230
Assign rand_sets[164]: 104  LLC: 2048
rand_sets[164]: 104
Assign rand_sets[165]: 1652  LLC: 2048
rand_sets[165]: 1652
Assign rand_sets[166]: 1446  LLC: 2048
rand_sets[166]: 1446
Assign rand_sets[167]: 1338  LLC: 2048
rand_sets[167]: 1338
Assign rand_sets[168]: 177  LLC: 2048
rand_sets[168]: 177
Assign rand_sets[169]: 195  LLC: 2048
rand_sets[169]: 195
Assign rand_sets[170]: 1171  LLC: 2048
rand_sets[170]: 1171
Assign rand_sets[171]: 1297  LLC: 2048
rand_sets[171]: 1297
Assign rand_sets[172]: 1704  LLC: 2048
rand_sets[172]: 1704
Assign rand_sets[173]: 100  LLC: 2048
rand_sets[173]: 100
Assign rand_sets[174]: 711  LLC: 2048
rand_sets[174]: 711
Assign rand_sets[175]: 1243  LLC: 2048
rand_sets[175]: 1243
Assign rand_sets[176]: 1738  LLC: 2048
rand_sets[176]: 1738
Assign rand_sets[177]: 1504  LLC: 2048
rand_sets[177]: 1504
Assign rand_sets[178]: 96  LLC: 2048
rand_sets[178]: 96
Assign rand_sets[179]: 1249  LLC: 2048
rand_sets[179]: 1249
Assign rand_sets[180]: 1267  LLC: 2048
rand_sets[180]: 1267
Assign rand_sets[181]: 1727  LLC: 2048
rand_sets[181]: 1727
Assign rand_sets[182]: 1545  LLC: 2048
rand_sets[182]: 1545
Assign rand_sets[183]: 1792  LLC: 2048
rand_sets[183]: 1792
Assign rand_sets[184]: 1383  LLC: 2048
rand_sets[184]: 1383
Assign rand_sets[185]: 1954  LLC: 2048
rand_sets[185]: 1954
Assign rand_sets[186]: 739  LLC: 2048
rand_sets[186]: 739
Assign rand_sets[187]: 1061  LLC: 2048
rand_sets[187]: 1061
Assign rand_sets[188]: 672  LLC: 2048
rand_sets[188]: 672
Assign rand_sets[189]: 1057  LLC: 2048
rand_sets[189]: 1057
Assign rand_sets[190]: 1329  LLC: 2048
Assign rand_sets[190]: 1415  LLC: 2048
rand_sets[190]: 1415
Assign rand_sets[191]: 981  LLC: 2048
rand_sets[191]: 981
Assign rand_sets[192]: 98  LLC: 2048
rand_sets[192]: 98
Assign rand_sets[193]: 453  LLC: 2048
rand_sets[193]: 453
Assign rand_sets[194]: 1448  LLC: 2048
rand_sets[194]: 1448
Assign rand_sets[195]: 79  LLC: 2048
rand_sets[195]: 79
Assign rand_sets[196]: 126  LLC: 2048
rand_sets[196]: 126
Assign rand_sets[197]: 1582  LLC: 2048
rand_sets[197]: 1582
Assign rand_sets[198]: 1289  LLC: 2048
rand_sets[198]: 1289
Assign rand_sets[199]: 875  LLC: 2048
rand_sets[199]: 875
Assign rand_sets[200]: 404  LLC: 2048
rand_sets[200]: 404
Assign rand_sets[201]: 415  LLC: 2048
rand_sets[201]: 415
Assign rand_sets[202]: 1712  LLC: 2048
rand_sets[202]: 1712
Assign rand_sets[203]: 1389  LLC: 2048
Assign rand_sets[203]: 169  LLC: 2048
rand_sets[203]: 169
Assign rand_sets[204]: 158  LLC: 2048
rand_sets[204]: 158
Assign rand_sets[205]: 90  LLC: 2048
rand_sets[205]: 90
Assign rand_sets[206]: 1291  LLC: 2048
rand_sets[206]: 1291
Assign rand_sets[207]: 838  LLC: 2048
rand_sets[207]: 838
Assign rand_sets[208]: 1904  LLC: 2048
rand_sets[208]: 1904
Assign rand_sets[209]: 640  LLC: 2048
rand_sets[209]: 640
Assign rand_sets[210]: 1462  LLC: 2048
rand_sets[210]: 1462
Assign rand_sets[211]: 1487  LLC: 2048
rand_sets[211]: 1487
Assign rand_sets[212]: 1863  LLC: 2048
rand_sets[212]: 1863
Assign rand_sets[213]: 1036  LLC: 2048
rand_sets[213]: 1036
Assign rand_sets[214]: 1702  LLC: 2048
Assign rand_sets[214]: 933  LLC: 2048
rand_sets[214]: 933
Assign rand_sets[215]: 554  LLC: 2048
rand_sets[215]: 554
Assign rand_sets[216]: 1496  LLC: 2048
rand_sets[216]: 1496
Assign rand_sets[217]: 1708  LLC: 2048
rand_sets[217]: 1708
Assign rand_sets[218]: 1275  LLC: 2048
Assign rand_sets[218]: 416  LLC: 2048
rand_sets[218]: 416
Assign rand_sets[219]: 491  LLC: 2048
rand_sets[219]: 491
Assign rand_sets[220]: 183  LLC: 2048
rand_sets[220]: 183
Assign rand_sets[221]: 1657  LLC: 2048
rand_sets[221]: 1657
Assign rand_sets[222]: 1060  LLC: 2048
rand_sets[222]: 1060
Assign rand_sets[223]: 626  LLC: 2048
rand_sets[223]: 626
Assign rand_sets[224]: 1315  LLC: 2048
rand_sets[224]: 1315
Assign rand_sets[225]: 1682  LLC: 2048
rand_sets[225]: 1682
Assign rand_sets[226]: 1352  LLC: 2048
rand_sets[226]: 1352
Assign rand_sets[227]: 1152  LLC: 2048
rand_sets[227]: 1152
Assign rand_sets[228]: 965  LLC: 2048
rand_sets[228]: 965
Assign rand_sets[229]: 1190  LLC: 2048
rand_sets[229]: 1190
Assign rand_sets[230]: 1191  LLC: 2048
rand_sets[230]: 1191
Assign rand_sets[231]: 645  LLC: 2048
rand_sets[231]: 645
Assign rand_sets[232]: 695  LLC: 2048
rand_sets[232]: 695
Assign rand_sets[233]: 1495  LLC: 2048
rand_sets[233]: 1495
Assign rand_sets[234]: 1932  LLC: 2048
rand_sets[234]: 1932
Assign rand_sets[235]: 656  LLC: 2048
rand_sets[235]: 656
Assign rand_sets[236]: 1508  LLC: 2048
rand_sets[236]: 1508
Assign rand_sets[237]: 939  LLC: 2048
rand_sets[237]: 939
Assign rand_sets[238]: 355  LLC: 2048
rand_sets[238]: 355
Assign rand_sets[239]: 1092  LLC: 2048
rand_sets[239]: 1092
Assign rand_sets[240]: 850  LLC: 2048
rand_sets[240]: 850
Assign rand_sets[241]: 102  LLC: 2048
rand_sets[241]: 102
Assign rand_sets[242]: 1763  LLC: 2048
rand_sets[242]: 1763
Assign rand_sets[243]: 668  LLC: 2048
Assign rand_sets[243]: 51  LLC: 2048
rand_sets[243]: 51
Assign rand_sets[244]: 1317  LLC: 2048
rand_sets[244]: 1317
Assign rand_sets[245]: 2041  LLC: 2048
rand_sets[245]: 2041
Assign rand_sets[246]: 1374  LLC: 2048
rand_sets[246]: 1374
Assign rand_sets[247]: 682  LLC: 2048
rand_sets[247]: 682
Assign rand_sets[248]: 1466  LLC: 2048
rand_sets[248]: 1466
Assign rand_sets[249]: 1139  LLC: 2048
rand_sets[249]: 1139
Assign rand_sets[250]: 1632  LLC: 2048
rand_sets[250]: 1632
Assign rand_sets[251]: 1117  LLC: 2048
rand_sets[251]: 1117
Assign rand_sets[252]: 1611  LLC: 2048
rand_sets[252]: 1611
Assign rand_sets[253]: 1905  LLC: 2048
rand_sets[253]: 1905
Assign rand_sets[254]: 1662  LLC: 2048
Assign rand_sets[254]: 446  LLC: 2048
rand_sets[254]: 446
Assign rand_sets[255]: 1705  LLC: 2048
rand_sets[255]: 1705

Warmup complete CPU 0 instructions: 1000003 cycles: 354137 (Simulation time: 0 hr 0 min 0 sec) 

Heartbeat CPU 0 instructions: 10000000 cycles: 7442961 heartbeat IPC: 1.34355 cumulative IPC: 1.2696 (Simulation time: 0 hr 0 min 11 sec) 
Heartbeat CPU 0 instructions: 20000002 cycles: 12227980 heartbeat IPC: 2.08986 cumulative IPC: 1.60016 (Simulation time: 0 hr 0 min 21 sec) 
Heartbeat CPU 0 instructions: 30000000 cycles: 16904147 heartbeat IPC: 2.1385 cumulative IPC: 1.75226 (Simulation time: 0 hr 0 min 31 sec) 
Heartbeat CPU 0 instructions: 40000000 cycles: 21408588 heartbeat IPC: 2.22003 cumulative IPC: 1.85234 (Simulation time: 0 hr 0 min 41 sec) 
Heartbeat CPU 0 instructions: 50000002 cycles: 27330682 heartbeat IPC: 1.68859 cumulative IPC: 1.81639 (Simulation time: 0 hr 0 min 50 sec) 
Finished CPU 0 instructions: 50000000 cycles: 27588110 cumulative IPC: 1.81237 (Simulation time: 0 hr 0 min 51 sec) 

ChampSim completed all CPUs

Region of Interest Statistics

CPU 0 cumulative IPC: 1.81237 instructions: 50000000 cycles: 27588110
L1D TOTAL     ACCESS:    9280001  HIT:    9074891  MISS:     205110
L1D LOAD      ACCESS:    4747589  HIT:    4651761  MISS:      95828
L1D RFO       ACCESS:    4532412  HIT:    4423130  MISS:     109282
L1D PREFETCH  ACCESS:          0  HIT:          0  MISS:          0
L1D WRITEBACK ACCESS:          0  HIT:          0  MISS:          0
L1D PREFETCH  REQUESTED:          0  ISSUED:          0  USEFUL:          0  USELESS:          0
L1D AVERAGE MISS LATENCY: 246.165 cycles
L1I TOTAL     ACCESS:   10214470  HIT:   10187760  MISS:      26710
L1I LOAD      ACCESS:   10214470  HIT:   10187760  MISS:      26710
L1I RFO       ACCESS:          0  HIT:          0  MISS:          0
L1I PREFETCH  ACCESS:          0  HIT:          0  MISS:          0
L1I WRITEBACK ACCESS:          0  HIT:          0  MISS:          0
L1I PREFETCH  REQUESTED:          0  ISSUED:          0  USEFUL:          0  USELESS:          0
L1I AVERAGE MISS LATENCY: 18.9411 cycles
L2C TOTAL     ACCESS:     586333  HIT:     422265  MISS:     164068
L2C LOAD      ACCESS:     122534  HIT:     100922  MISS:      21612
L2C RFO       ACCESS:     109279  HIT:      26358  MISS:      82921
L2C PREFETCH  ACCESS:     234347  HIT:     175629  MISS:      58718
L2C WRITEBACK ACCESS:     120173  HIT:     119356  MISS:        817
L2C PREFETCH  REQUESTED:     256190  ISSUED:     253021  USEFUL:      10633  USELESS:      45839
L2C AVERAGE MISS LATENCY: 320.073 cycles
LLC TOTAL     ACCESS:     256997  HIT:     144143  MISS:     112854
LLC LOAD      ACCESS:      20065  HIT:      15228  MISS:       4837
LLC RFO       ACCESS:      82920  HIT:       9788  MISS:      73132
LLC PREFETCH  ACCESS:      60266  HIT:      48047  MISS:      12219
LLC WRITEBACK ACCESS:      93746  HIT:      71080  MISS:      22666
LLC PREFETCH  REQUESTED:          0  ISSUED:          0  USEFUL:       1434  USELESS:       1587
LLC AVERAGE MISS LATENCY: 420.945 cycles
Major fault: 0 Minor fault: 2497
CPU 0 L2C BOP prefetcher final stats
bop_end_phase_max_round 1077
bop_end_phase_max_score 287
bop_total_phases 1364
bop_fill_called 225051
bop_fill_insert_rr 225051
bop_insert_rr_hit 10
bop_insert_rr_evict 224785
bop_insert_rr_insert 225041
bop_pref_buffer_buffered 0
bop_pref_buffer_spilled 0
bop_pref_buffer_issued 0
bop_pref_issued 253057

Entry 0:   0x22b4cc06bf3
Entry 1:   0x22b4cc06bf6
Entry 2:   0x22b4cc06bf8
Entry 3:   0x22b4cc06bcc
Entry 4:   0x22b4cc06be7
Entry 5:   0x29f422b4d24
Entry 6:   0x29f422b4d3f
Entry 7:   0x2c81c49905d
Entry 8:   0x2c81c499078
Entry 9:   0x2c81c49916e
Entry 10:   0x2c81c499170
Entry 11:   0x2c81c49916f
Entry 12:   0x2c81c499128
Entry 13:   0x2c81c4991ea
Entry 14:   0x2c81c49925b
Entry 15:   0x2c81c499276
Entry 16:   0x2c81c499244
Entry 17:   0x2c81c499245
Entry 18:   0x23b109af765
Entry 19:   0x23b109af766
Entry 20:   0x23b109af767
Entry 21:   0x23b109af768
Entry 22:   0x23b109af8d2
Entry 23:   0x23b109af8d4
Entry 24:   0x22b4cc07410
Entry 25:   0x23b109b0691
Entry 26:   0x23b109b065b
Entry 27:   0x23b109b065c
Entry 28:   0x23b109b065d
Entry 29:   0x23b109b065e
Entry 30:   0x23b109b0692
Entry 31:   0x23b109b0693
Entry 32:   0x23b109b0694
Entry 33:   0x23b109b0695
Entry 34:   0x2c81c4998ab
Entry 35:   0x29f422b4c94
Entry 36:   0x29f422b4c95
Entry 37:   0x29f422b4c96
Entry 38:   0x29f422b4c97
Entry 39:   0x29f422b4c98
Entry 40:   0x2c81c4991d8
Entry 41:   0x2c81c4991d9
Entry 42:   0x2c81c4991da
Entry 43:   0x2c81c499894
Entry 44:   0x23b109afee5
Entry 45:   0x23b109afee6
Entry 46:   0x23b109afee7
Entry 47:   0x2c81c4991db
Entry 48:   0x2c81c4991dc
Entry 49:   0x2c81c499b27
Entry 50:   0x2c81c499b28
Entry 51:   0x2c81c499b29
Entry 52:   0x2c81c499b2a
Entry 53:   0x2c81c4994bf
Entry 54:   0x2c81c499290
Entry 55:   0x2c81c499291
Entry 56:   0x2c81c499292
Entry 57:   0x2c81c499293
Entry 58:   0x2c81c4992f4
Entry 59:   0x23b109b0889
Entry 60:   0x22b4cc07aeb
Entry 61:   0x22b4cc07aec
Entry 62:   0x22b4cc07aed
Entry 63:   0x22b4cc07aee
Entry 64:   0x23b109b0853
Entry 65:   0x23b109b0854
Entry 66:   0x23b109b0855
Entry 67:   0x23b109b0856
Entry 68:   0x23b109b088a
Entry 69:   0x23b109b088b
Entry 70:   0x23b109b088c
Entry 71:   0x23b109b088d
Entry 72:   0x23b109aff4c
Entry 73:   0x23b109aff4d
Entry 74:   0x23b109aff1d
Entry 75:   0x23b109affb6
Entry 76:   0x23b109affba
Entry 77:   0x3b8c2ee2c90
Entry 78:   0x3b8c2ee2c92
Entry 79:   0x3b8c2ee2c93
Entry 80:   0x3b8c2ee2c94
Entry 81:   0x3b8c2ee2c9e
Entry 82:   0x3b8c2ee2c9f
Entry 83:   0x3b8c2ee2ca0
Entry 84:   0x2c81c49934a
Entry 85:   0x2c81c49934b
Entry 86:   0x2c81c4993fd
Entry 87:   0x2c81c4993fe
Entry 88:   0x2c81c4993cc
Entry 89:   0x23b109b0a60
Entry 90:   0x23b109b0a97
Entry 91:   0x22b4cc08596
Entry 92:   0x22b4cc08597
Entry 93:   0x22b4cc08598
Entry 94:   0x22b4cc08599
Entry 95:   0x23b109b0a2b
Entry 96:   0x23b109b0a2d
Entry 97:   0x23b109b0a61
Entry 98:   0x23b109b0a62
Entry 99:   0x23b109b0a63
Entry 100:   0x23b109b0a64
Entry 101:   0x23b109b0a98
Entry 102:   0x23b109b0a99
Entry 103:   0x23b109b0a9a
Entry 104:   0x23b109b0a9b
Entry 105:   0x22b4cc07968
Entry 106:   0x23b109b0bce
Entry 107:   0x22b4cc07969
Entry 108:   0x22b4cc0796a
Entry 109:   0x22b4cc0796b
Entry 110:   0x22b4cc0796c
Entry 111:   0x23b109b0c09
Entry 112:   0x23b109b0bcf
Entry 113:   0x23b109b0bd0
Entry 114:   0x23b109b0c7c
Entry 115:   0x23b109b0bd1
Entry 116:   0x23b109b0bd2
Entry 117:   0x23b109b0c7d
Entry 118:   0x23b109b0c7e
Entry 119:   0x23b109b0c7f
Entry 120:   0x2c81c499491
Entry 121:   0x2c81c499492
Entry 122:   0x2c81c499493
Entry 123:   0x2c81c499494
Entry 124:   0x2c81c499495
Entry 125:   0x2c81c4992b9
Entry 126:   0x2c81c4992ba
Entry 127:   0x2c81c4992bb
Entry 128:   0x2c81c4993d8
Entry 129:   0x2c81c4993d9
Entry 130:   0x2c81c4993da
Entry 131:   0x2c81c4993dc
Entry 132:   0x22b4cc08aed
Entry 133:   0x23b109b0c98
Entry 134:   0x22b4cc08aee
Entry 135:   0x22b4cc08aef
Entry 136:   0x22b4cc08af0
Entry 137:   0x22b4cc08af1
Entry 138:   0x23b109b0c99
Entry 139:   0x23b109b0c9a
Entry 140:   0x2c81c4997d8
Entry 141:   0x23b109b0c9b
Entry 142:   0x23b109b0c9c
Entry 143:   0x23b109b0cd1
Entry 144:   0x23b109b0cd2
Entry 145:   0x23b109b0cd3
Entry 146:   0x3b8c2ee2c95
Entry 147:   0x3b8c2ee2ca2
Entry 148:   0x29f422b4a60
Entry 149:   0x2c81c4998bc
Entry 150:   0x22b4cc07288
Entry 151:   0x22b4cc07289
Entry 152:   0x22b4cc0728a
Entry 153:   0x22b4cc0728c
Entry 154:   0x23b109b0e86
Entry 155:   0x23b109b0e87
Entry 156:   0x23b109b0e89
Entry 157:   0x23b109b0e52
Entry 158:   0x23b109b0efd
Entry 159:   0x23b109b0efe
Entry 160:   0x22b4cc07bb3
Entry 161:   0x22b4cc07bb4
Entry 162:   0x22b4cc07bb5
Entry 163:   0x22b4cc07bb6
Entry 164:   0x23b109b1093
Entry 165:   0x22b4cc07bb7
Entry 166:   0x23b109b105d
Entry 167:   0x23b109b105e
Entry 168:   0x23b109b105f
Entry 169:   0x23b109b1060
Entry 170:   0x23b109b1026
Entry 171:   0x23b109b1029
Entry 172:   0x23b109b1094
Entry 173:   0x23b109b1095
Entry 174:   0x23b109b1096
Entry 175:   0x23b109b1097
Entry 176:   0x2c81c4992a0
Entry 177:   0x2c81c49946e
Entry 178:   0x22b4cc08bb2
Entry 179:   0x22b4cc08bb3
Entry 180:   0x22b4cc08bb4
Entry 181:   0x23b109b111b
Entry 182:   0x23b109b111d
Entry 183:   0x23b109b111e
Entry 184:   0x2c81c4998ba
Entry 185:   0x2c81c4998bb
Entry 186:   0x2c81c4996ba
Entry 187:   0x3b8c2ee2c87
Entry 188:   0x23b109affb2
Entry 189:   0x23b109affb3
Entry 190:   0x23b109affb4
Entry 191:   0x23b109affb5
Entry 192:   0x2c81c4995ef
Entry 193:   0x2c81c4995f0
Entry 194:   0x2c81c4995f1
Entry 195:   0x2c81c49929e
Entry 196:   0x2c81c4993ce
Entry 197:   0x23b109b10eb
Entry 198:   0x2c81c499893
Entry 199:   0x160a69b98ab
Entry 200:   0x2c81c499692
Entry 201:   0x3b8c2ee2c96
Entry 202:   0x3b8c2ee2ca3
Entry 203:   0x2c81c499891
Entry 204:   0x2c81c4995d2
Entry 205:   0x23b109b10ed
Entry 206:   0x23b109b1128
Entry 207:   0x2c81c499686
Entry 208:   0x3b8c2ee2c88
Entry 209:   0x2c81c49943d
Entry 210:   0x2c81c4993d2
Entry 211:   0x22b4cc08beb
Entry 212:   0x23b109b13d2
Entry 213:   0x23b109aff36
Entry 214:   0x23b109aff98
Entry 215:   0x23b109aff9a
Entry 216:   0x3b8c2ee2c97
Entry 217:   0x2c81c49947c
Entry 218:   0x2c81c49947e
Entry 219:   0x2c81c499693
Entry 220:   0x3b8c2ee2c89
Entry 221:   0x23b109aff9c
Entry 222:   0x2c81c499694
Entry 223:   0x2c81c499477
Entry 224:   0x2c81c499479
Entry 225:   0x3b8c2ee2ca5
Entry 226:   0x2c81c499298
Entry 227:   0x22b4cc08bef
Entry 228:   0x22b4cc08bf0
Entry 229:   0x23b109b13d8
Entry 230:   0x23b109b13d9
Entry 231:   0x23b109b1547
Entry 232:   0x2c81c499695
Entry 233:   0x2c81c499697
Entry 234:   0x3b8c2ee2e17
Entry 235:   0x3b8c2ee2e18
Entry 236:   0x160a69b98ac
Entry 237:   0x2c81c499888
Entry 238:   0x2c81c499889
Entry 239:   0x2c81c49988a
Entry 240:   0x2c81c49988c
Entry 241:   0x2c81c499895
Entry 242:   0x2c81c499898
Entry 243:   0x2c81c49989a
Entry 244:   0x2c81c49989e
Entry 245:   0x2c81c4998a0
Entry 246:   0x2c81c4998a2
Entry 247:   0x2c81c4998b9
Entry 248:   0x2c81c499688
Entry 249:   0x2c81c499689
Entry 250:   0x2c81c49968a
Entry 251:   0x160a69b98b9
Entry 252:   0x160a69b98ba
Entry 253:   0x2c81c4997fd
Entry 254:   0x2c81c49975c
Entry 255:   0x2c81c499896

DRAM Statistics
 CHANNEL 0
 RQ ROW_BUFFER_HIT:      28634  ROW_BUFFER_MISS:      61554
 DBUS_CONGESTED:     152582
 WQ ROW_BUFFER_HIT:      26605  ROW_BUFFER_MISS:      61818  FULL:      43047

 AVG_CONGESTED_CYCLE: 6

CPU 0 Branch Prediction Accuracy: 98.0412% MPKI: 2.0669 Average ROB Occupancy at Mispredict: 112.219

Branch types
NOT_BRANCH: 44724211 89.4484%
BRANCH_DIRECT_JUMP: 400052 0.800104%
BRANCH_INDIRECT: 85 0.00017%
BRANCH_CONDITIONAL: 4251767 8.50353%
BRANCH_DIRECT_CALL: 311993 0.623986%
BRANCH_INDIRECT_CALL: 0 0%
BRANCH_RETURN: 311988 0.623976%
BRANCH_OTHER: 0 0%

