
*** ChampSim Multicore Out-of-Order Simulator ***

Warmup Instructions: 1000000
Simulation Instructions: 50000000
Number of CPUs: 1
LLC sets: 2048
LLC ways: 16
Off-chip DRAM Size: 4096 MB Channels: 1 Width: 64-bit Data Rate: 3200 MT/s

CPU 0 runs /home/carter/Documents/Homework/Carter-Owens-ECE-Workbook-Spring-2025/ECE-5750-Architecture/assignments/ChampSim/dpc3_traces/631.deepsjeng_s-928B.champsimtrace.xz
CPU 0 L2C Best Offset prefetcher
Initialize SHIP state
Assign rand_sets[0]: 454  LLC: 2048
rand_sets[0]: 454
Assign rand_sets[1]: 1662  LLC: 2048
rand_sets[1]: 1662
Assign rand_sets[2]: 1921  LLC: 2048
rand_sets[2]: 1921
Assign rand_sets[3]: 1131  LLC: 2048
rand_sets[3]: 1131
Assign rand_sets[4]: 331  LLC: 2048
rand_sets[4]: 331
Assign rand_sets[5]: 1531  LLC: 2048
rand_sets[5]: 1531
Assign rand_sets[6]: 482  LLC: 2048
rand_sets[6]: 482
Assign rand_sets[7]: 1275  LLC: 2048
rand_sets[7]: 1275
Assign rand_sets[8]: 1876  LLC: 2048
rand_sets[8]: 1876
Assign rand_sets[9]: 2038  LLC: 2048
rand_sets[9]: 2038
Assign rand_sets[10]: 701  LLC: 2048
rand_sets[10]: 701
Assign rand_sets[11]: 479  LLC: 2048
rand_sets[11]: 479
Assign rand_sets[12]: 892  LLC: 2048
rand_sets[12]: 892
Assign rand_sets[13]: 1820  LLC: 2048
rand_sets[13]: 1820
Assign rand_sets[14]: 1505  LLC: 2048
rand_sets[14]: 1505
Assign rand_sets[15]: 1159  LLC: 2048
rand_sets[15]: 1159
Assign rand_sets[16]: 513  LLC: 2048
rand_sets[16]: 513
Assign rand_sets[17]: 703  LLC: 2048
rand_sets[17]: 703
Assign rand_sets[18]: 561  LLC: 2048
rand_sets[18]: 561
Assign rand_sets[19]: 990  LLC: 2048
rand_sets[19]: 990
Assign rand_sets[20]: 342  LLC: 2048
rand_sets[20]: 342
Assign rand_sets[21]: 882  LLC: 2048
rand_sets[21]: 882
Assign rand_sets[22]: 15  LLC: 2048
rand_sets[22]: 15
Assign rand_sets[23]: 71  LLC: 2048
rand_sets[23]: 71
Assign rand_sets[24]: 1127  LLC: 2048
rand_sets[24]: 1127
Assign rand_sets[25]: 1382  LLC: 2048
rand_sets[25]: 1382
Assign rand_sets[26]: 647  LLC: 2048
rand_sets[26]: 647
Assign rand_sets[27]: 857  LLC: 2048
rand_sets[27]: 857
Assign rand_sets[28]: 1450  LLC: 2048
rand_sets[28]: 1450
Assign rand_sets[29]: 1160  LLC: 2048
rand_sets[29]: 1160
Assign rand_sets[30]: 1852  LLC: 2048
rand_sets[30]: 1852
Assign rand_sets[31]: 1881  LLC: 2048
rand_sets[31]: 1881
Assign rand_sets[32]: 1770  LLC: 2048
rand_sets[32]: 1770
Assign rand_sets[33]: 1622  LLC: 2048
rand_sets[33]: 1622
Assign rand_sets[34]: 275  LLC: 2048
rand_sets[34]: 275
Assign rand_sets[35]: 635  LLC: 2048
rand_sets[35]: 635
Assign rand_sets[36]: 466  LLC: 2048
rand_sets[36]: 466
Assign rand_sets[37]: 1413  LLC: 2048
rand_sets[37]: 1413
Assign rand_sets[38]: 417  LLC: 2048
rand_sets[38]: 417
Assign rand_sets[39]: 472  LLC: 2048
rand_sets[39]: 472
Assign rand_sets[40]: 1340  LLC: 2048
rand_sets[40]: 1340
Assign rand_sets[41]: 852  LLC: 2048
rand_sets[41]: 852
Assign rand_sets[42]: 1365  LLC: 2048
rand_sets[42]: 1365
Assign rand_sets[43]: 47  LLC: 2048
rand_sets[43]: 47
Assign rand_sets[44]: 823  LLC: 2048
rand_sets[44]: 823
Assign rand_sets[45]: 686  LLC: 2048
rand_sets[45]: 686
Assign rand_sets[46]: 1637  LLC: 2048
rand_sets[46]: 1637
Assign rand_sets[47]: 1115  LLC: 2048
rand_sets[47]: 1115
Assign rand_sets[48]: 986  LLC: 2048
rand_sets[48]: 986
Assign rand_sets[49]: 258  LLC: 2048
rand_sets[49]: 258
Assign rand_sets[50]: 633  LLC: 2048
rand_sets[50]: 633
Assign rand_sets[51]: 920  LLC: 2048
rand_sets[51]: 920
Assign rand_sets[52]: 204  LLC: 2048
rand_sets[52]: 204
Assign rand_sets[53]: 227  LLC: 2048
rand_sets[53]: 227
Assign rand_sets[54]: 1818  LLC: 2048
rand_sets[54]: 1818
Assign rand_sets[55]: 886  LLC: 2048
rand_sets[55]: 886
Assign rand_sets[56]: 1422  LLC: 2048
rand_sets[56]: 1422
Assign rand_sets[57]: 607  LLC: 2048
rand_sets[57]: 607
Assign rand_sets[58]: 217  LLC: 2048
rand_sets[58]: 217
Assign rand_sets[59]: 1945  LLC: 2048
rand_sets[59]: 1945
Assign rand_sets[60]: 143  LLC: 2048
rand_sets[60]: 143
Assign rand_sets[61]: 1311  LLC: 2048
rand_sets[61]: 1311
Assign rand_sets[62]: 319  LLC: 2048
rand_sets[62]: 319
Assign rand_sets[63]: 1846  LLC: 2048
rand_sets[63]: 1846
Assign rand_sets[64]: 238  LLC: 2048
rand_sets[64]: 238
Assign rand_sets[65]: 67  LLC: 2048
rand_sets[65]: 67
Assign rand_sets[66]: 1912  LLC: 2048
rand_sets[66]: 1912
Assign rand_sets[67]: 1613  LLC: 2048
rand_sets[67]: 1613
Assign rand_sets[68]: 1293  LLC: 2048
rand_sets[68]: 1293
Assign rand_sets[69]: 1018  LLC: 2048
rand_sets[69]: 1018
Assign rand_sets[70]: 1982  LLC: 2048
rand_sets[70]: 1982
Assign rand_sets[71]: 1702  LLC: 2048
rand_sets[71]: 1702
Assign rand_sets[72]: 1498  LLC: 2048
rand_sets[72]: 1498
Assign rand_sets[73]: 228  LLC: 2048
rand_sets[73]: 228
Assign rand_sets[74]: 1414  LLC: 2048
rand_sets[74]: 1414
Assign rand_sets[75]: 1166  LLC: 2048
rand_sets[75]: 1166
Assign rand_sets[76]: 732  LLC: 2048
rand_sets[76]: 732
Assign rand_sets[77]: 297  LLC: 2048
rand_sets[77]: 297
Assign rand_sets[78]: 1133  LLC: 2048
rand_sets[78]: 1133
Assign rand_sets[79]: 846  LLC: 2048
rand_sets[79]: 846
Assign rand_sets[80]: 767  LLC: 2048
rand_sets[80]: 767
Assign rand_sets[81]: 1878  LLC: 2048
rand_sets[81]: 1878
Assign rand_sets[82]: 993  LLC: 2048
rand_sets[82]: 993
Assign rand_sets[83]: 1392  LLC: 2048
rand_sets[83]: 1392
Assign rand_sets[84]: 1568  LLC: 2048
rand_sets[84]: 1568
Assign rand_sets[85]: 1787  LLC: 2048
rand_sets[85]: 1787
Assign rand_sets[86]: 399  LLC: 2048
rand_sets[86]: 399
Assign rand_sets[87]: 1201  LLC: 2048
rand_sets[87]: 1201
Assign rand_sets[88]: 856  LLC: 2048
rand_sets[88]: 856
Assign rand_sets[89]: 773  LLC: 2048
rand_sets[89]: 773
Assign rand_sets[90]: 1680  LLC: 2048
rand_sets[90]: 1680
Assign rand_sets[91]: 1477  LLC: 2048
rand_sets[91]: 1477
Assign rand_sets[92]: 9  LLC: 2048
rand_sets[92]: 9
Assign rand_sets[93]: 1500  LLC: 2048
rand_sets[93]: 1500
Assign rand_sets[94]: 851  LLC: 2048
rand_sets[94]: 851
Assign rand_sets[95]: 973  LLC: 2048
rand_sets[95]: 973
Assign rand_sets[96]: 938  LLC: 2048
rand_sets[96]: 938
Assign rand_sets[97]: 1851  LLC: 2048
rand_sets[97]: 1851
Assign rand_sets[98]: 1608  LLC: 2048
rand_sets[98]: 1608
Assign rand_sets[99]: 1945  LLC: 2048
Assign rand_sets[99]: 1106  LLC: 2048
rand_sets[99]: 1106
Assign rand_sets[100]: 979  LLC: 2048
rand_sets[100]: 979
Assign rand_sets[101]: 338  LLC: 2048
rand_sets[101]: 338
Assign rand_sets[102]: 1693  LLC: 2048
rand_sets[102]: 1693
Assign rand_sets[103]: 6  LLC: 2048
rand_sets[103]: 6
Assign rand_sets[104]: 671  LLC: 2048
rand_sets[104]: 671
Assign rand_sets[105]: 490  LLC: 2048
rand_sets[105]: 490
Assign rand_sets[106]: 1461  LLC: 2048
rand_sets[106]: 1461
Assign rand_sets[107]: 1730  LLC: 2048
rand_sets[107]: 1730
Assign rand_sets[108]: 1030  LLC: 2048
rand_sets[108]: 1030
Assign rand_sets[109]: 19  LLC: 2048
rand_sets[109]: 19
Assign rand_sets[110]: 920  LLC: 2048
Assign rand_sets[110]: 329  LLC: 2048
rand_sets[110]: 329
Assign rand_sets[111]: 1714  LLC: 2048
rand_sets[111]: 1714
Assign rand_sets[112]: 1  LLC: 2048
rand_sets[112]: 1
Assign rand_sets[113]: 1822  LLC: 2048
rand_sets[113]: 1822
Assign rand_sets[114]: 172  LLC: 2048
rand_sets[114]: 172
Assign rand_sets[115]: 1586  LLC: 2048
rand_sets[115]: 1586
Assign rand_sets[116]: 648  LLC: 2048
rand_sets[116]: 648
Assign rand_sets[117]: 1329  LLC: 2048
rand_sets[117]: 1329
Assign rand_sets[118]: 668  LLC: 2048
rand_sets[118]: 668
Assign rand_sets[119]: 1874  LLC: 2048
rand_sets[119]: 1874
Assign rand_sets[120]: 70  LLC: 2048
rand_sets[120]: 70
Assign rand_sets[121]: 661  LLC: 2048
rand_sets[121]: 661
Assign rand_sets[122]: 1649  LLC: 2048
rand_sets[122]: 1649
Assign rand_sets[123]: 1590  LLC: 2048
rand_sets[123]: 1590
Assign rand_sets[124]: 911  LLC: 2048
rand_sets[124]: 911
Assign rand_sets[125]: 1367  LLC: 2048
rand_sets[125]: 1367
Assign rand_sets[126]: 1782  LLC: 2048
rand_sets[126]: 1782
Assign rand_sets[127]: 569  LLC: 2048
rand_sets[127]: 569
Assign rand_sets[128]: 1309  LLC: 2048
rand_sets[128]: 1309
Assign rand_sets[129]: 534  LLC: 2048
rand_sets[129]: 534
Assign rand_sets[130]: 1274  LLC: 2048
rand_sets[130]: 1274
Assign rand_sets[131]: 904  LLC: 2048
rand_sets[131]: 904
Assign rand_sets[132]: 1908  LLC: 2048
rand_sets[132]: 1908
Assign rand_sets[133]: 245  LLC: 2048
rand_sets[133]: 245
Assign rand_sets[134]: 1688  LLC: 2048
rand_sets[134]: 1688
Assign rand_sets[135]: 1660  LLC: 2048
rand_sets[135]: 1660
Assign rand_sets[136]: 1303  LLC: 2048
rand_sets[136]: 1303
Assign rand_sets[137]: 1628  LLC: 2048
rand_sets[137]: 1628
Assign rand_sets[138]: 1857  LLC: 2048
rand_sets[138]: 1857
Assign rand_sets[139]: 187  LLC: 2048
rand_sets[139]: 187
Assign rand_sets[140]: 1389  LLC: 2048
rand_sets[140]: 1389
Assign rand_sets[141]: 881  LLC: 2048
rand_sets[141]: 881
Assign rand_sets[142]: 1166  LLC: 2048
Assign rand_sets[142]: 1039  LLC: 2048
rand_sets[142]: 1039
Assign rand_sets[143]: 1136  LLC: 2048
rand_sets[143]: 1136
Assign rand_sets[144]: 601  LLC: 2048
rand_sets[144]: 601
Assign rand_sets[145]: 967  LLC: 2048
rand_sets[145]: 967
Assign rand_sets[146]: 769  LLC: 2048
rand_sets[146]: 769
Assign rand_sets[147]: 283  LLC: 2048
rand_sets[147]: 283
Assign rand_sets[148]: 559  LLC: 2048
rand_sets[148]: 559
Assign rand_sets[149]: 1075  LLC: 2048
rand_sets[149]: 1075
Assign rand_sets[150]: 829  LLC: 2048
rand_sets[150]: 829
Assign rand_sets[151]: 1681  LLC: 2048
rand_sets[151]: 1681
Assign rand_sets[152]: 1728  LLC: 2048
rand_sets[152]: 1728
Assign rand_sets[153]: 541  LLC: 2048
rand_sets[153]: 541
Assign rand_sets[154]: 421  LLC: 2048
rand_sets[154]: 421
Assign rand_sets[155]: 1037  LLC: 2048
rand_sets[155]: 1037
Assign rand_sets[156]: 13  LLC: 2048
rand_sets[156]: 13
Assign rand_sets[157]: 1707  LLC: 2048
rand_sets[157]: 1707
Assign rand_sets[158]: 1075  LLC: 2048
Assign rand_sets[158]: 1933  LLC: 2048
rand_sets[158]: 1933
Assign rand_sets[159]: 1406  LLC: 2048
rand_sets[159]: 1406
Assign rand_sets[160]: 94  LLC: 2048
rand_sets[160]: 94
Assign rand_sets[161]: 1423  LLC: 2048
rand_sets[161]: 1423
Assign rand_sets[162]: 1854  LLC: 2048
rand_sets[162]: 1854
Assign rand_sets[163]: 230  LLC: 2048
rand_sets[163]: 230
Assign rand_sets[164]: 104  LLC: 2048
rand_sets[164]: 104
Assign rand_sets[165]: 1652  LLC: 2048
rand_sets[165]: 1652
Assign rand_sets[166]: 1446  LLC: 2048
rand_sets[166]: 1446
Assign rand_sets[167]: 1338  LLC: 2048
rand_sets[167]: 1338
Assign rand_sets[168]: 177  LLC: 2048
rand_sets[168]: 177
Assign rand_sets[169]: 195  LLC: 2048
rand_sets[169]: 195
Assign rand_sets[170]: 1171  LLC: 2048
rand_sets[170]: 1171
Assign rand_sets[171]: 1297  LLC: 2048
rand_sets[171]: 1297
Assign rand_sets[172]: 1704  LLC: 2048
rand_sets[172]: 1704
Assign rand_sets[173]: 100  LLC: 2048
rand_sets[173]: 100
Assign rand_sets[174]: 711  LLC: 2048
rand_sets[174]: 711
Assign rand_sets[175]: 1243  LLC: 2048
rand_sets[175]: 1243
Assign rand_sets[176]: 1738  LLC: 2048
rand_sets[176]: 1738
Assign rand_sets[177]: 1504  LLC: 2048
rand_sets[177]: 1504
Assign rand_sets[178]: 96  LLC: 2048
rand_sets[178]: 96
Assign rand_sets[179]: 1249  LLC: 2048
rand_sets[179]: 1249
Assign rand_sets[180]: 1267  LLC: 2048
rand_sets[180]: 1267
Assign rand_sets[181]: 1727  LLC: 2048
rand_sets[181]: 1727
Assign rand_sets[182]: 1545  LLC: 2048
rand_sets[182]: 1545
Assign rand_sets[183]: 1792  LLC: 2048
rand_sets[183]: 1792
Assign rand_sets[184]: 1383  LLC: 2048
rand_sets[184]: 1383
Assign rand_sets[185]: 1954  LLC: 2048
rand_sets[185]: 1954
Assign rand_sets[186]: 739  LLC: 2048
rand_sets[186]: 739
Assign rand_sets[187]: 1061  LLC: 2048
rand_sets[187]: 1061
Assign rand_sets[188]: 672  LLC: 2048
rand_sets[188]: 672
Assign rand_sets[189]: 1057  LLC: 2048
rand_sets[189]: 1057
Assign rand_sets[190]: 1329  LLC: 2048
Assign rand_sets[190]: 1415  LLC: 2048
rand_sets[190]: 1415
Assign rand_sets[191]: 981  LLC: 2048
rand_sets[191]: 981
Assign rand_sets[192]: 98  LLC: 2048
rand_sets[192]: 98
Assign rand_sets[193]: 453  LLC: 2048
rand_sets[193]: 453
Assign rand_sets[194]: 1448  LLC: 2048
rand_sets[194]: 1448
Assign rand_sets[195]: 79  LLC: 2048
rand_sets[195]: 79
Assign rand_sets[196]: 126  LLC: 2048
rand_sets[196]: 126
Assign rand_sets[197]: 1582  LLC: 2048
rand_sets[197]: 1582
Assign rand_sets[198]: 1289  LLC: 2048
rand_sets[198]: 1289
Assign rand_sets[199]: 875  LLC: 2048
rand_sets[199]: 875
Assign rand_sets[200]: 404  LLC: 2048
rand_sets[200]: 404
Assign rand_sets[201]: 415  LLC: 2048
rand_sets[201]: 415
Assign rand_sets[202]: 1712  LLC: 2048
rand_sets[202]: 1712
Assign rand_sets[203]: 1389  LLC: 2048
Assign rand_sets[203]: 169  LLC: 2048
rand_sets[203]: 169
Assign rand_sets[204]: 158  LLC: 2048
rand_sets[204]: 158
Assign rand_sets[205]: 90  LLC: 2048
rand_sets[205]: 90
Assign rand_sets[206]: 1291  LLC: 2048
rand_sets[206]: 1291
Assign rand_sets[207]: 838  LLC: 2048
rand_sets[207]: 838
Assign rand_sets[208]: 1904  LLC: 2048
rand_sets[208]: 1904
Assign rand_sets[209]: 640  LLC: 2048
rand_sets[209]: 640
Assign rand_sets[210]: 1462  LLC: 2048
rand_sets[210]: 1462
Assign rand_sets[211]: 1487  LLC: 2048
rand_sets[211]: 1487
Assign rand_sets[212]: 1863  LLC: 2048
rand_sets[212]: 1863
Assign rand_sets[213]: 1036  LLC: 2048
rand_sets[213]: 1036
Assign rand_sets[214]: 1702  LLC: 2048
Assign rand_sets[214]: 933  LLC: 2048
rand_sets[214]: 933
Assign rand_sets[215]: 554  LLC: 2048
rand_sets[215]: 554
Assign rand_sets[216]: 1496  LLC: 2048
rand_sets[216]: 1496
Assign rand_sets[217]: 1708  LLC: 2048
rand_sets[217]: 1708
Assign rand_sets[218]: 1275  LLC: 2048
Assign rand_sets[218]: 416  LLC: 2048
rand_sets[218]: 416
Assign rand_sets[219]: 491  LLC: 2048
rand_sets[219]: 491
Assign rand_sets[220]: 183  LLC: 2048
rand_sets[220]: 183
Assign rand_sets[221]: 1657  LLC: 2048
rand_sets[221]: 1657
Assign rand_sets[222]: 1060  LLC: 2048
rand_sets[222]: 1060
Assign rand_sets[223]: 626  LLC: 2048
rand_sets[223]: 626
Assign rand_sets[224]: 1315  LLC: 2048
rand_sets[224]: 1315
Assign rand_sets[225]: 1682  LLC: 2048
rand_sets[225]: 1682
Assign rand_sets[226]: 1352  LLC: 2048
rand_sets[226]: 1352
Assign rand_sets[227]: 1152  LLC: 2048
rand_sets[227]: 1152
Assign rand_sets[228]: 965  LLC: 2048
rand_sets[228]: 965
Assign rand_sets[229]: 1190  LLC: 2048
rand_sets[229]: 1190
Assign rand_sets[230]: 1191  LLC: 2048
rand_sets[230]: 1191
Assign rand_sets[231]: 645  LLC: 2048
rand_sets[231]: 645
Assign rand_sets[232]: 695  LLC: 2048
rand_sets[232]: 695
Assign rand_sets[233]: 1495  LLC: 2048
rand_sets[233]: 1495
Assign rand_sets[234]: 1932  LLC: 2048
rand_sets[234]: 1932
Assign rand_sets[235]: 656  LLC: 2048
rand_sets[235]: 656
Assign rand_sets[236]: 1508  LLC: 2048
rand_sets[236]: 1508
Assign rand_sets[237]: 939  LLC: 2048
rand_sets[237]: 939
Assign rand_sets[238]: 355  LLC: 2048
rand_sets[238]: 355
Assign rand_sets[239]: 1092  LLC: 2048
rand_sets[239]: 1092
Assign rand_sets[240]: 850  LLC: 2048
rand_sets[240]: 850
Assign rand_sets[241]: 102  LLC: 2048
rand_sets[241]: 102
Assign rand_sets[242]: 1763  LLC: 2048
rand_sets[242]: 1763
Assign rand_sets[243]: 668  LLC: 2048
Assign rand_sets[243]: 51  LLC: 2048
rand_sets[243]: 51
Assign rand_sets[244]: 1317  LLC: 2048
rand_sets[244]: 1317
Assign rand_sets[245]: 2041  LLC: 2048
rand_sets[245]: 2041
Assign rand_sets[246]: 1374  LLC: 2048
rand_sets[246]: 1374
Assign rand_sets[247]: 682  LLC: 2048
rand_sets[247]: 682
Assign rand_sets[248]: 1466  LLC: 2048
rand_sets[248]: 1466
Assign rand_sets[249]: 1139  LLC: 2048
rand_sets[249]: 1139
Assign rand_sets[250]: 1632  LLC: 2048
rand_sets[250]: 1632
Assign rand_sets[251]: 1117  LLC: 2048
rand_sets[251]: 1117
Assign rand_sets[252]: 1611  LLC: 2048
rand_sets[252]: 1611
Assign rand_sets[253]: 1905  LLC: 2048
rand_sets[253]: 1905
Assign rand_sets[254]: 1662  LLC: 2048
Assign rand_sets[254]: 446  LLC: 2048
rand_sets[254]: 446
Assign rand_sets[255]: 1705  LLC: 2048
rand_sets[255]: 1705

Warmup complete CPU 0 instructions: 1000001 cycles: 390083 (Simulation time: 0 hr 0 min 1 sec) 

Heartbeat CPU 0 instructions: 10000000 cycles: 7883515 heartbeat IPC: 1.26847 cumulative IPC: 1.20105 (Simulation time: 0 hr 0 min 9 sec) 
Heartbeat CPU 0 instructions: 20000000 cycles: 16528081 heartbeat IPC: 1.1568 cumulative IPC: 1.17735 (Simulation time: 0 hr 0 min 19 sec) 
Heartbeat CPU 0 instructions: 30000000 cycles: 24769364 heartbeat IPC: 1.2134 cumulative IPC: 1.18953 (Simulation time: 0 hr 0 min 28 sec) 
Heartbeat CPU 0 instructions: 40000003 cycles: 33055431 heartbeat IPC: 1.20685 cumulative IPC: 1.19393 (Simulation time: 0 hr 0 min 38 sec) 
Heartbeat CPU 0 instructions: 50000002 cycles: 41392612 heartbeat IPC: 1.19945 cumulative IPC: 1.19505 (Simulation time: 0 hr 0 min 47 sec) 
Finished CPU 0 instructions: 50000000 cycles: 41816903 cumulative IPC: 1.19569 (Simulation time: 0 hr 0 min 48 sec) 

ChampSim completed all CPUs

Region of Interest Statistics

CPU 0 cumulative IPC: 1.19569 instructions: 50000000 cycles: 41816903
L1D TOTAL     ACCESS:   14456962  HIT:   14388943  MISS:      68019
L1D LOAD      ACCESS:    8594872  HIT:    8549227  MISS:      45645
L1D RFO       ACCESS:    5862090  HIT:    5839716  MISS:      22374
L1D PREFETCH  ACCESS:          0  HIT:          0  MISS:          0
L1D WRITEBACK ACCESS:          0  HIT:          0  MISS:          0
L1D PREFETCH  REQUESTED:          0  ISSUED:          0  USEFUL:          0  USELESS:          0
L1D AVERAGE MISS LATENCY: 45.3328 cycles
L1I TOTAL     ACCESS:   10036327  HIT:    9990420  MISS:      45907
L1I LOAD      ACCESS:   10036327  HIT:    9990420  MISS:      45907
L1I RFO       ACCESS:          0  HIT:          0  MISS:          0
L1I PREFETCH  ACCESS:          0  HIT:          0  MISS:          0
L1I WRITEBACK ACCESS:          0  HIT:          0  MISS:          0
L1I PREFETCH  REQUESTED:          0  ISSUED:          0  USEFUL:          0  USELESS:          0
L1I AVERAGE MISS LATENCY: 11.6105 cycles
L2C TOTAL     ACCESS:     314962  HIT:     270943  MISS:      44019
L2C LOAD      ACCESS:      91551  HIT:      76475  MISS:      15076
L2C RFO       ACCESS:      22371  HIT:      19991  MISS:       2380
L2C PREFETCH  ACCESS:     165270  HIT:     139014  MISS:      26256
L2C WRITEBACK ACCESS:      35770  HIT:      35463  MISS:        307
L2C PREFETCH  REQUESTED:     168803  ISSUED:     168803  USEFUL:       1103  USELESS:      24438
L2C AVERAGE MISS LATENCY: 125.43 cycles
LLC TOTAL     ACCESS:      56064  HIT:      18086  MISS:      37978
LLC LOAD      ACCESS:      15032  HIT:       1281  MISS:      13751
LLC RFO       ACCESS:       2380  HIT:       1716  MISS:        664
LLC PREFETCH  ACCESS:      26300  HIT:       5920  MISS:      20380
LLC WRITEBACK ACCESS:      12352  HIT:       9169  MISS:       3183
LLC PREFETCH  REQUESTED:          0  ISSUED:          0  USEFUL:        218  USELESS:       9621
LLC AVERAGE MISS LATENCY: 110.713 cycles
Major fault: 0 Minor fault: 8975
CPU 0 L2C BOP prefetcher final stats
bop_end_phase_max_round 928
bop_end_phase_max_score 9
bop_total_phases 937
bop_fill_called 46963
bop_fill_insert_rr 46963
bop_insert_rr_hit 1
bop_insert_rr_evict 46706
bop_insert_rr_insert 46962
bop_pref_buffer_buffered 0
bop_pref_buffer_spilled 0
bop_pref_buffer_issued 0
bop_pref_issued 173786

Entry 0:   0x2b1b66e17e5
Entry 1:   0x2b1b66e17e6
Entry 2:   0x2b1b66e17e7
Entry 3:   0x2b1b66e17e8
Entry 4:   0x2b1b66e182a
Entry 5:   0x2b1b66e182b
Entry 6:   0x2b1b66e182c
Entry 7:   0x2b1b66e182d
Entry 8:   0x2b1b66e182e
Entry 9:   0x2b1b66e1862
Entry 10:   0x2b1b66e1863
Entry 11:   0x2b1b66e1864
Entry 12:   0x2b1b66e1865
Entry 13:   0x2b1b66e1861
Entry 14:   0x308106a8faa
Entry 15:   0x308106a8fab
Entry 16:   0x308106a8fac
Entry 17:   0x308106a8fad
Entry 18:   0x308106a8fae
Entry 19:   0x2b1b66e18b2
Entry 20:   0x2b1b66e18b3
Entry 21:   0x2b1b66e18b4
Entry 22:   0x2b1b66e18b5
Entry 23:   0x2b1b66e18b6
Entry 24:   0x2b1b66e18b7
Entry 25:   0x3a00d794e95
Entry 26:   0x3a00d794e96
Entry 27:   0x3a00d794e97
Entry 28:   0x3a00d794e98
Entry 29:   0x3a00d794e99
Entry 30:   0x3a00d794e9a
Entry 31:   0x2b1b66e18e3
Entry 32:   0x2b1b66e18e4
Entry 33:   0x2b1b66e18e0
Entry 34:   0x2b1b66e18e1
Entry 35:   0x2b1b66e18e2
Entry 36:   0x2b1b66e1904
Entry 37:   0x2b1b66e1908
Entry 38:   0x2b1b66e1905
Entry 39:   0x2b1b66e1906
Entry 40:   0x2b1b66e1907
Entry 41:   0x2b1b66e1909
Entry 42:   0x2b1b66e1967
Entry 43:   0x2b1b66e1968
Entry 44:   0x2b1b66e1969
Entry 45:   0x2b1b66e196a
Entry 46:   0x2b1b66e196b
Entry 47:   0x2b1b66e198d
Entry 48:   0x2b1b66e198e
Entry 49:   0x2b1b66e198f
Entry 50:   0x2b1b66e1990
Entry 51:   0x2b1b66e1991
Entry 52:   0x2b1b66e19c2
Entry 53:   0x2b1b66e19c3
Entry 54:   0x2b1b66e19c4
Entry 55:   0x2b1b66e19c6
Entry 56:   0x2b1b66e19c5
Entry 57:   0x2b1b66e19c7
Entry 58:   0x2b1b66e1a1d
Entry 59:   0x2b1b66e1a20
Entry 60:   0x2b1b66e1a1b
Entry 61:   0x2b1b66e1a1c
Entry 62:   0x2b1b66e1a1e
Entry 63:   0x2b1b66e1a1f
Entry 64:   0x2b1b66e1a4f
Entry 65:   0x2b1b66e1a50
Entry 66:   0x2b1b66e1a51
Entry 67:   0x2b1b66e1a52
Entry 68:   0x2b1b66e1a53
Entry 69:   0x2b1b66e1aa8
Entry 70:   0x2b1b66e1aa9
Entry 71:   0x2b1b66e1aaa
Entry 72:   0x2b1b66e1aab
Entry 73:   0x2b1b66e1aac
Entry 74:   0x2b1b66e1aad
Entry 75:   0x2b1b66e1ac4
Entry 76:   0x2b1b66e1ac5
Entry 77:   0x2b1b66e1ac6
Entry 78:   0x2b1b66e1ac7
Entry 79:   0x2b1b66e1ac3
Entry 80:   0x2b1b66e1b37
Entry 81:   0x2b1b66e1b38
Entry 82:   0x2b1b66e1b39
Entry 83:   0x2b1b66e1b3a
Entry 84:   0x2b1b66e1b3b
Entry 85:   0x2b1b66e1b54
Entry 86:   0x2b1b66e1b55
Entry 87:   0x2b1b66e1b56
Entry 88:   0x2b1b66e1b57
Entry 89:   0x2b1b66e1b58
Entry 90:   0x2b1b66e1b59
Entry 91:   0x2b1b66e1bb3
Entry 92:   0x2b1b66e1bb4
Entry 93:   0x2b1b66e1bb5
Entry 94:   0x2b1b66e1bb6
Entry 95:   0x2b1b66e1bb7
Entry 96:   0x2b1b66e1bb8
Entry 97:   0x2b1b66e1bd7
Entry 98:   0x2b1b66e1bd8
Entry 99:   0x2b1b66e1bd9
Entry 100:   0x2b1b66e1bda
Entry 101:   0x2b1b66e1bdb
Entry 102:   0x2b1b66e1bdc
Entry 103:   0x2b1b66e1c34
Entry 104:   0x2b1b66e1c35
Entry 105:   0x2b1b66e1c36
Entry 106:   0x2b1b66e1c37
Entry 107:   0x2b1b66e1c38
Entry 108:   0x2b1b66e1c39
Entry 109:   0x2b1b66e1c71
Entry 110:   0x2b1b66e1c75
Entry 111:   0x2b1b66e1c76
Entry 112:   0x2b1b66e1c72
Entry 113:   0x2b1b66e1c73
Entry 114:   0x2b1b66e1c74
Entry 115:   0x2b1b66e1c9b
Entry 116:   0x2b1b66e1c9c
Entry 117:   0x2b1b66e1c9d
Entry 118:   0x2b1b66e1c9e
Entry 119:   0x2b1b66e1c9f
Entry 120:   0x23b109b0ebf
Entry 121:   0x3a00d794c24
Entry 122:   0x3a00d794c26
Entry 123:   0x3a00d794c27
Entry 124:   0x3a00d794c28
Entry 125:   0x3a00d794c2a
Entry 126:   0x3a00d794c38
Entry 127:   0x3a00d794c3c
Entry 128:   0x2884c865c9
Entry 129:   0x3a00d794c29
Entry 130:   0x3f7f4e9f1e3
Entry 131:   0x3a00d794c3a
Entry 132:   0x3a00d794c3b
Entry 133:   0x3f7f4e9f1e4
Entry 134:   0x3f7f4e9f1e5
Entry 135:   0x3a00d794c39
Entry 136:   0x3a00d794c23
Entry 137:   0x2b1b66e1cdc
Entry 138:   0x2b1b66e1cdd
Entry 139:   0x2b1b66e1cde
Entry 140:   0x2b1b66e1cdf
Entry 141:   0x2b1b66e1ce0
Entry 142:   0x2b1b66e1d16
Entry 143:   0x2b1b66e1d17
Entry 144:   0x2b1b66e1d18
Entry 145:   0x2b1b66e1d19
Entry 146:   0x2b1b66e1d1a
Entry 147:   0x2b1b66e1d1d
Entry 148:   0x2b1b66e1d2a
Entry 149:   0x3f7f4e9f17c
Entry 150:   0x2b1b66e1d2d
Entry 151:   0x2b1b66e1d2e
Entry 152:   0x2b1b66e1d1b
Entry 153:   0x2b1b66e1d2b
Entry 154:   0x2b1b66e1d1c
Entry 155:   0x2b1b66e1d1e
Entry 156:   0x2b1b66e1d39
Entry 157:   0x2b1b66e1d2c
Entry 158:   0x2b1b66e1d1f
Entry 159:   0x2b1b66e1d20
Entry 160:   0x2b1b66e1d2f
Entry 161:   0x2b1b66e1d15
Entry 162:   0x2b1b66e1d14
Entry 163:   0x2b1b66e1d13
Entry 164:   0x2b1b66e1d12
Entry 165:   0x2b1b66e1d11
Entry 166:   0x3a00d7924aa
Entry 167:   0x3a00d7924ae
Entry 168:   0x3a00d7924af
Entry 169:   0x2b1b66e1d10
Entry 170:   0x2b1b66e1d0e
Entry 171:   0x2b1b66e1d0d
Entry 172:   0x2b1b66e1d0c
Entry 173:   0x2b1b66e1d50
Entry 174:   0x2b1b66e1d51
Entry 175:   0x2b1b66e1d53
Entry 176:   0x2b1b66e1d54
Entry 177:   0x2b1b66e1d52
Entry 178:   0x2b1b66e1d55
Entry 179:   0x3a00d794c06
Entry 180:   0x3a00d79246b
Entry 181:   0x2b1b66e1da7
Entry 182:   0x2b1b66e1da8
Entry 183:   0x2b1b66e1da9
Entry 184:   0x2b1b66e1daa
Entry 185:   0x2b1b66e1dab
Entry 186:   0x286af5fccd6
Entry 187:   0x2b1b66e1dac
Entry 188:   0x2b1b66e1dff
Entry 189:   0x2b1b66e1e3c
Entry 190:   0x2b1b66e1e3d
Entry 191:   0x2b1b66e1e3e
Entry 192:   0x2b1b66e1e3f
Entry 193:   0x2b1b66e1e3b
Entry 194:   0x3a00d78de6e
Entry 195:   0x3a00d78de6d
Entry 196:   0x3a00d78de6c
Entry 197:   0x3a00d78de6b
Entry 198:   0x286af5fcc2b
Entry 199:   0x3a00d78de7e
Entry 200:   0x3a00d78de6a
Entry 201:   0x3a00d78de69
Entry 202:   0x3a00d78de68
Entry 203:   0x286af5fcc28
Entry 204:   0x3a00d78de4b
Entry 205:   0x2b1b66e1e4a
Entry 206:   0x2b1b66e1e4b
Entry 207:   0x2b1b66e1e4c
Entry 208:   0x2b1b66e1e4d
Entry 209:   0x2b1b66e1e4e
Entry 210:   0x2b1b66e1e96
Entry 211:   0x2b1b66e1e97
Entry 212:   0x2b1b66e1e99
Entry 213:   0x2b1b66e1e9a
Entry 214:   0x2b1b66e1e98
Entry 215:   0x2884c86106
Entry 216:   0x2884c86107
Entry 217:   0x2884c86108
Entry 218:   0x3a00d78de7f
Entry 219:   0x3a00d7923c0
Entry 220:   0x3a00d78e0b3
Entry 221:   0x3a00d78e0b4
Entry 222:   0x3a00d78e0b5
Entry 223:   0x3a00d78e0b6
Entry 224:   0x3a00d78e0f3
Entry 225:   0x3a00d78e0f4
Entry 226:   0x3a00d78e0f5
Entry 227:   0x3a00d78e0f6
Entry 228:   0x2b1b66e1ec6
Entry 229:   0x2b1b66e1ec7
Entry 230:   0x2b1b66e1ec8
Entry 231:   0x2b1b66e1ec9
Entry 232:   0x2b1b66e1eca
Entry 233:   0x3a00d78de4a
Entry 234:   0x2b1b66e1f09
Entry 235:   0x2b1b66e1f0a
Entry 236:   0x2b1b66e1f0b
Entry 237:   0x2b1b66e1f0c
Entry 238:   0x2b1b66e1f0d
Entry 239:   0x3a00d78e0ab
Entry 240:   0x3a00d78e0ac
Entry 241:   0x3a00d78e0ec
Entry 242:   0x2b1b66e1f42
Entry 243:   0x2b1b66e1f43
Entry 244:   0x2b1b66e1f44
Entry 245:   0x2b1b66e1f45
Entry 246:   0x2b1b66e1f46
Entry 247:   0x3a00d78e0fb
Entry 248:   0x2884c865fb
Entry 249:   0x3a00d78e0ff
Entry 250:   0x3a00d78e0b7
Entry 251:   0x3a00d78e0b8
Entry 252:   0x3a00d78e0f7
Entry 253:   0x3a00d78e0f8
Entry 254:   0x3a00d78e0aa
Entry 255:   0x3a00d78e0ea

DRAM Statistics
 CHANNEL 0
 RQ ROW_BUFFER_HIT:      24322  ROW_BUFFER_MISS:      10473
 DBUS_CONGESTED:      12100
 WQ ROW_BUFFER_HIT:         42  ROW_BUFFER_MISS:       1171  FULL:          0

 AVG_CONGESTED_CYCLE: 6

CPU 0 Branch Prediction Accuracy: 93.6845% MPKI: 9.42704 Average ROB Occupancy at Mispredict: 59.7016

Branch types
NOT_BRANCH: 42536242 85.0725%
BRANCH_DIRECT_JUMP: 456071 0.912142%
BRANCH_INDIRECT: 43522 0.087044%
BRANCH_CONDITIONAL: 5004316 10.0086%
BRANCH_DIRECT_CALL: 979735 1.95947%
BRANCH_INDIRECT_CALL: 0 0%
BRANCH_RETURN: 979740 1.95948%
BRANCH_OTHER: 0 0%

