
*** ChampSim Multicore Out-of-Order Simulator ***

Warmup Instructions: 1000000
Simulation Instructions: 50000000
Number of CPUs: 1
LLC sets: 2048
LLC ways: 16
Off-chip DRAM Size: 4096 MB Channels: 1 Width: 64-bit Data Rate: 3200 MT/s

CPU 0 runs /home/carter/Documents/Homework/Carter-Owens-ECE-Workbook-Spring-2025/ECE-5750-Architecture/assignments/ChampSim/dpc3_traces/641.leela_s-800B.champsimtrace.xz
CPU 0 L2C Best Offset prefetcher
Initialize SHIP state
Assign rand_sets[0]: 454  LLC: 2048
rand_sets[0]: 454
Assign rand_sets[1]: 1662  LLC: 2048
rand_sets[1]: 1662
Assign rand_sets[2]: 1921  LLC: 2048
rand_sets[2]: 1921
Assign rand_sets[3]: 1131  LLC: 2048
rand_sets[3]: 1131
Assign rand_sets[4]: 331  LLC: 2048
rand_sets[4]: 331
Assign rand_sets[5]: 1531  LLC: 2048
rand_sets[5]: 1531
Assign rand_sets[6]: 482  LLC: 2048
rand_sets[6]: 482
Assign rand_sets[7]: 1275  LLC: 2048
rand_sets[7]: 1275
Assign rand_sets[8]: 1876  LLC: 2048
rand_sets[8]: 1876
Assign rand_sets[9]: 2038  LLC: 2048
rand_sets[9]: 2038
Assign rand_sets[10]: 701  LLC: 2048
rand_sets[10]: 701
Assign rand_sets[11]: 479  LLC: 2048
rand_sets[11]: 479
Assign rand_sets[12]: 892  LLC: 2048
rand_sets[12]: 892
Assign rand_sets[13]: 1820  LLC: 2048
rand_sets[13]: 1820
Assign rand_sets[14]: 1505  LLC: 2048
rand_sets[14]: 1505
Assign rand_sets[15]: 1159  LLC: 2048
rand_sets[15]: 1159
Assign rand_sets[16]: 513  LLC: 2048
rand_sets[16]: 513
Assign rand_sets[17]: 703  LLC: 2048
rand_sets[17]: 703
Assign rand_sets[18]: 561  LLC: 2048
rand_sets[18]: 561
Assign rand_sets[19]: 990  LLC: 2048
rand_sets[19]: 990
Assign rand_sets[20]: 342  LLC: 2048
rand_sets[20]: 342
Assign rand_sets[21]: 882  LLC: 2048
rand_sets[21]: 882
Assign rand_sets[22]: 15  LLC: 2048
rand_sets[22]: 15
Assign rand_sets[23]: 71  LLC: 2048
rand_sets[23]: 71
Assign rand_sets[24]: 1127  LLC: 2048
rand_sets[24]: 1127
Assign rand_sets[25]: 1382  LLC: 2048
rand_sets[25]: 1382
Assign rand_sets[26]: 647  LLC: 2048
rand_sets[26]: 647
Assign rand_sets[27]: 857  LLC: 2048
rand_sets[27]: 857
Assign rand_sets[28]: 1450  LLC: 2048
rand_sets[28]: 1450
Assign rand_sets[29]: 1160  LLC: 2048
rand_sets[29]: 1160
Assign rand_sets[30]: 1852  LLC: 2048
rand_sets[30]: 1852
Assign rand_sets[31]: 1881  LLC: 2048
rand_sets[31]: 1881
Assign rand_sets[32]: 1770  LLC: 2048
rand_sets[32]: 1770
Assign rand_sets[33]: 1622  LLC: 2048
rand_sets[33]: 1622
Assign rand_sets[34]: 275  LLC: 2048
rand_sets[34]: 275
Assign rand_sets[35]: 635  LLC: 2048
rand_sets[35]: 635
Assign rand_sets[36]: 466  LLC: 2048
rand_sets[36]: 466
Assign rand_sets[37]: 1413  LLC: 2048
rand_sets[37]: 1413
Assign rand_sets[38]: 417  LLC: 2048
rand_sets[38]: 417
Assign rand_sets[39]: 472  LLC: 2048
rand_sets[39]: 472
Assign rand_sets[40]: 1340  LLC: 2048
rand_sets[40]: 1340
Assign rand_sets[41]: 852  LLC: 2048
rand_sets[41]: 852
Assign rand_sets[42]: 1365  LLC: 2048
rand_sets[42]: 1365
Assign rand_sets[43]: 47  LLC: 2048
rand_sets[43]: 47
Assign rand_sets[44]: 823  LLC: 2048
rand_sets[44]: 823
Assign rand_sets[45]: 686  LLC: 2048
rand_sets[45]: 686
Assign rand_sets[46]: 1637  LLC: 2048
rand_sets[46]: 1637
Assign rand_sets[47]: 1115  LLC: 2048
rand_sets[47]: 1115
Assign rand_sets[48]: 986  LLC: 2048
rand_sets[48]: 986
Assign rand_sets[49]: 258  LLC: 2048
rand_sets[49]: 258
Assign rand_sets[50]: 633  LLC: 2048
rand_sets[50]: 633
Assign rand_sets[51]: 920  LLC: 2048
rand_sets[51]: 920
Assign rand_sets[52]: 204  LLC: 2048
rand_sets[52]: 204
Assign rand_sets[53]: 227  LLC: 2048
rand_sets[53]: 227
Assign rand_sets[54]: 1818  LLC: 2048
rand_sets[54]: 1818
Assign rand_sets[55]: 886  LLC: 2048
rand_sets[55]: 886
Assign rand_sets[56]: 1422  LLC: 2048
rand_sets[56]: 1422
Assign rand_sets[57]: 607  LLC: 2048
rand_sets[57]: 607
Assign rand_sets[58]: 217  LLC: 2048
rand_sets[58]: 217
Assign rand_sets[59]: 1945  LLC: 2048
rand_sets[59]: 1945
Assign rand_sets[60]: 143  LLC: 2048
rand_sets[60]: 143
Assign rand_sets[61]: 1311  LLC: 2048
rand_sets[61]: 1311
Assign rand_sets[62]: 319  LLC: 2048
rand_sets[62]: 319
Assign rand_sets[63]: 1846  LLC: 2048
rand_sets[63]: 1846
Assign rand_sets[64]: 238  LLC: 2048
rand_sets[64]: 238
Assign rand_sets[65]: 67  LLC: 2048
rand_sets[65]: 67
Assign rand_sets[66]: 1912  LLC: 2048
rand_sets[66]: 1912
Assign rand_sets[67]: 1613  LLC: 2048
rand_sets[67]: 1613
Assign rand_sets[68]: 1293  LLC: 2048
rand_sets[68]: 1293
Assign rand_sets[69]: 1018  LLC: 2048
rand_sets[69]: 1018
Assign rand_sets[70]: 1982  LLC: 2048
rand_sets[70]: 1982
Assign rand_sets[71]: 1702  LLC: 2048
rand_sets[71]: 1702
Assign rand_sets[72]: 1498  LLC: 2048
rand_sets[72]: 1498
Assign rand_sets[73]: 228  LLC: 2048
rand_sets[73]: 228
Assign rand_sets[74]: 1414  LLC: 2048
rand_sets[74]: 1414
Assign rand_sets[75]: 1166  LLC: 2048
rand_sets[75]: 1166
Assign rand_sets[76]: 732  LLC: 2048
rand_sets[76]: 732
Assign rand_sets[77]: 297  LLC: 2048
rand_sets[77]: 297
Assign rand_sets[78]: 1133  LLC: 2048
rand_sets[78]: 1133
Assign rand_sets[79]: 846  LLC: 2048
rand_sets[79]: 846
Assign rand_sets[80]: 767  LLC: 2048
rand_sets[80]: 767
Assign rand_sets[81]: 1878  LLC: 2048
rand_sets[81]: 1878
Assign rand_sets[82]: 993  LLC: 2048
rand_sets[82]: 993
Assign rand_sets[83]: 1392  LLC: 2048
rand_sets[83]: 1392
Assign rand_sets[84]: 1568  LLC: 2048
rand_sets[84]: 1568
Assign rand_sets[85]: 1787  LLC: 2048
rand_sets[85]: 1787
Assign rand_sets[86]: 399  LLC: 2048
rand_sets[86]: 399
Assign rand_sets[87]: 1201  LLC: 2048
rand_sets[87]: 1201
Assign rand_sets[88]: 856  LLC: 2048
rand_sets[88]: 856
Assign rand_sets[89]: 773  LLC: 2048
rand_sets[89]: 773
Assign rand_sets[90]: 1680  LLC: 2048
rand_sets[90]: 1680
Assign rand_sets[91]: 1477  LLC: 2048
rand_sets[91]: 1477
Assign rand_sets[92]: 9  LLC: 2048
rand_sets[92]: 9
Assign rand_sets[93]: 1500  LLC: 2048
rand_sets[93]: 1500
Assign rand_sets[94]: 851  LLC: 2048
rand_sets[94]: 851
Assign rand_sets[95]: 973  LLC: 2048
rand_sets[95]: 973
Assign rand_sets[96]: 938  LLC: 2048
rand_sets[96]: 938
Assign rand_sets[97]: 1851  LLC: 2048
rand_sets[97]: 1851
Assign rand_sets[98]: 1608  LLC: 2048
rand_sets[98]: 1608
Assign rand_sets[99]: 1945  LLC: 2048
Assign rand_sets[99]: 1106  LLC: 2048
rand_sets[99]: 1106
Assign rand_sets[100]: 979  LLC: 2048
rand_sets[100]: 979
Assign rand_sets[101]: 338  LLC: 2048
rand_sets[101]: 338
Assign rand_sets[102]: 1693  LLC: 2048
rand_sets[102]: 1693
Assign rand_sets[103]: 6  LLC: 2048
rand_sets[103]: 6
Assign rand_sets[104]: 671  LLC: 2048
rand_sets[104]: 671
Assign rand_sets[105]: 490  LLC: 2048
rand_sets[105]: 490
Assign rand_sets[106]: 1461  LLC: 2048
rand_sets[106]: 1461
Assign rand_sets[107]: 1730  LLC: 2048
rand_sets[107]: 1730
Assign rand_sets[108]: 1030  LLC: 2048
rand_sets[108]: 1030
Assign rand_sets[109]: 19  LLC: 2048
rand_sets[109]: 19
Assign rand_sets[110]: 920  LLC: 2048
Assign rand_sets[110]: 329  LLC: 2048
rand_sets[110]: 329
Assign rand_sets[111]: 1714  LLC: 2048
rand_sets[111]: 1714
Assign rand_sets[112]: 1  LLC: 2048
rand_sets[112]: 1
Assign rand_sets[113]: 1822  LLC: 2048
rand_sets[113]: 1822
Assign rand_sets[114]: 172  LLC: 2048
rand_sets[114]: 172
Assign rand_sets[115]: 1586  LLC: 2048
rand_sets[115]: 1586
Assign rand_sets[116]: 648  LLC: 2048
rand_sets[116]: 648
Assign rand_sets[117]: 1329  LLC: 2048
rand_sets[117]: 1329
Assign rand_sets[118]: 668  LLC: 2048
rand_sets[118]: 668
Assign rand_sets[119]: 1874  LLC: 2048
rand_sets[119]: 1874
Assign rand_sets[120]: 70  LLC: 2048
rand_sets[120]: 70
Assign rand_sets[121]: 661  LLC: 2048
rand_sets[121]: 661
Assign rand_sets[122]: 1649  LLC: 2048
rand_sets[122]: 1649
Assign rand_sets[123]: 1590  LLC: 2048
rand_sets[123]: 1590
Assign rand_sets[124]: 911  LLC: 2048
rand_sets[124]: 911
Assign rand_sets[125]: 1367  LLC: 2048
rand_sets[125]: 1367
Assign rand_sets[126]: 1782  LLC: 2048
rand_sets[126]: 1782
Assign rand_sets[127]: 569  LLC: 2048
rand_sets[127]: 569
Assign rand_sets[128]: 1309  LLC: 2048
rand_sets[128]: 1309
Assign rand_sets[129]: 534  LLC: 2048
rand_sets[129]: 534
Assign rand_sets[130]: 1274  LLC: 2048
rand_sets[130]: 1274
Assign rand_sets[131]: 904  LLC: 2048
rand_sets[131]: 904
Assign rand_sets[132]: 1908  LLC: 2048
rand_sets[132]: 1908
Assign rand_sets[133]: 245  LLC: 2048
rand_sets[133]: 245
Assign rand_sets[134]: 1688  LLC: 2048
rand_sets[134]: 1688
Assign rand_sets[135]: 1660  LLC: 2048
rand_sets[135]: 1660
Assign rand_sets[136]: 1303  LLC: 2048
rand_sets[136]: 1303
Assign rand_sets[137]: 1628  LLC: 2048
rand_sets[137]: 1628
Assign rand_sets[138]: 1857  LLC: 2048
rand_sets[138]: 1857
Assign rand_sets[139]: 187  LLC: 2048
rand_sets[139]: 187
Assign rand_sets[140]: 1389  LLC: 2048
rand_sets[140]: 1389
Assign rand_sets[141]: 881  LLC: 2048
rand_sets[141]: 881
Assign rand_sets[142]: 1166  LLC: 2048
Assign rand_sets[142]: 1039  LLC: 2048
rand_sets[142]: 1039
Assign rand_sets[143]: 1136  LLC: 2048
rand_sets[143]: 1136
Assign rand_sets[144]: 601  LLC: 2048
rand_sets[144]: 601
Assign rand_sets[145]: 967  LLC: 2048
rand_sets[145]: 967
Assign rand_sets[146]: 769  LLC: 2048
rand_sets[146]: 769
Assign rand_sets[147]: 283  LLC: 2048
rand_sets[147]: 283
Assign rand_sets[148]: 559  LLC: 2048
rand_sets[148]: 559
Assign rand_sets[149]: 1075  LLC: 2048
rand_sets[149]: 1075
Assign rand_sets[150]: 829  LLC: 2048
rand_sets[150]: 829
Assign rand_sets[151]: 1681  LLC: 2048
rand_sets[151]: 1681
Assign rand_sets[152]: 1728  LLC: 2048
rand_sets[152]: 1728
Assign rand_sets[153]: 541  LLC: 2048
rand_sets[153]: 541
Assign rand_sets[154]: 421  LLC: 2048
rand_sets[154]: 421
Assign rand_sets[155]: 1037  LLC: 2048
rand_sets[155]: 1037
Assign rand_sets[156]: 13  LLC: 2048
rand_sets[156]: 13
Assign rand_sets[157]: 1707  LLC: 2048
rand_sets[157]: 1707
Assign rand_sets[158]: 1075  LLC: 2048
Assign rand_sets[158]: 1933  LLC: 2048
rand_sets[158]: 1933
Assign rand_sets[159]: 1406  LLC: 2048
rand_sets[159]: 1406
Assign rand_sets[160]: 94  LLC: 2048
rand_sets[160]: 94
Assign rand_sets[161]: 1423  LLC: 2048
rand_sets[161]: 1423
Assign rand_sets[162]: 1854  LLC: 2048
rand_sets[162]: 1854
Assign rand_sets[163]: 230  LLC: 2048
rand_sets[163]: 230
Assign rand_sets[164]: 104  LLC: 2048
rand_sets[164]: 104
Assign rand_sets[165]: 1652  LLC: 2048
rand_sets[165]: 1652
Assign rand_sets[166]: 1446  LLC: 2048
rand_sets[166]: 1446
Assign rand_sets[167]: 1338  LLC: 2048
rand_sets[167]: 1338
Assign rand_sets[168]: 177  LLC: 2048
rand_sets[168]: 177
Assign rand_sets[169]: 195  LLC: 2048
rand_sets[169]: 195
Assign rand_sets[170]: 1171  LLC: 2048
rand_sets[170]: 1171
Assign rand_sets[171]: 1297  LLC: 2048
rand_sets[171]: 1297
Assign rand_sets[172]: 1704  LLC: 2048
rand_sets[172]: 1704
Assign rand_sets[173]: 100  LLC: 2048
rand_sets[173]: 100
Assign rand_sets[174]: 711  LLC: 2048
rand_sets[174]: 711
Assign rand_sets[175]: 1243  LLC: 2048
rand_sets[175]: 1243
Assign rand_sets[176]: 1738  LLC: 2048
rand_sets[176]: 1738
Assign rand_sets[177]: 1504  LLC: 2048
rand_sets[177]: 1504
Assign rand_sets[178]: 96  LLC: 2048
rand_sets[178]: 96
Assign rand_sets[179]: 1249  LLC: 2048
rand_sets[179]: 1249
Assign rand_sets[180]: 1267  LLC: 2048
rand_sets[180]: 1267
Assign rand_sets[181]: 1727  LLC: 2048
rand_sets[181]: 1727
Assign rand_sets[182]: 1545  LLC: 2048
rand_sets[182]: 1545
Assign rand_sets[183]: 1792  LLC: 2048
rand_sets[183]: 1792
Assign rand_sets[184]: 1383  LLC: 2048
rand_sets[184]: 1383
Assign rand_sets[185]: 1954  LLC: 2048
rand_sets[185]: 1954
Assign rand_sets[186]: 739  LLC: 2048
rand_sets[186]: 739
Assign rand_sets[187]: 1061  LLC: 2048
rand_sets[187]: 1061
Assign rand_sets[188]: 672  LLC: 2048
rand_sets[188]: 672
Assign rand_sets[189]: 1057  LLC: 2048
rand_sets[189]: 1057
Assign rand_sets[190]: 1329  LLC: 2048
Assign rand_sets[190]: 1415  LLC: 2048
rand_sets[190]: 1415
Assign rand_sets[191]: 981  LLC: 2048
rand_sets[191]: 981
Assign rand_sets[192]: 98  LLC: 2048
rand_sets[192]: 98
Assign rand_sets[193]: 453  LLC: 2048
rand_sets[193]: 453
Assign rand_sets[194]: 1448  LLC: 2048
rand_sets[194]: 1448
Assign rand_sets[195]: 79  LLC: 2048
rand_sets[195]: 79
Assign rand_sets[196]: 126  LLC: 2048
rand_sets[196]: 126
Assign rand_sets[197]: 1582  LLC: 2048
rand_sets[197]: 1582
Assign rand_sets[198]: 1289  LLC: 2048
rand_sets[198]: 1289
Assign rand_sets[199]: 875  LLC: 2048
rand_sets[199]: 875
Assign rand_sets[200]: 404  LLC: 2048
rand_sets[200]: 404
Assign rand_sets[201]: 415  LLC: 2048
rand_sets[201]: 415
Assign rand_sets[202]: 1712  LLC: 2048
rand_sets[202]: 1712
Assign rand_sets[203]: 1389  LLC: 2048
Assign rand_sets[203]: 169  LLC: 2048
rand_sets[203]: 169
Assign rand_sets[204]: 158  LLC: 2048
rand_sets[204]: 158
Assign rand_sets[205]: 90  LLC: 2048
rand_sets[205]: 90
Assign rand_sets[206]: 1291  LLC: 2048
rand_sets[206]: 1291
Assign rand_sets[207]: 838  LLC: 2048
rand_sets[207]: 838
Assign rand_sets[208]: 1904  LLC: 2048
rand_sets[208]: 1904
Assign rand_sets[209]: 640  LLC: 2048
rand_sets[209]: 640
Assign rand_sets[210]: 1462  LLC: 2048
rand_sets[210]: 1462
Assign rand_sets[211]: 1487  LLC: 2048
rand_sets[211]: 1487
Assign rand_sets[212]: 1863  LLC: 2048
rand_sets[212]: 1863
Assign rand_sets[213]: 1036  LLC: 2048
rand_sets[213]: 1036
Assign rand_sets[214]: 1702  LLC: 2048
Assign rand_sets[214]: 933  LLC: 2048
rand_sets[214]: 933
Assign rand_sets[215]: 554  LLC: 2048
rand_sets[215]: 554
Assign rand_sets[216]: 1496  LLC: 2048
rand_sets[216]: 1496
Assign rand_sets[217]: 1708  LLC: 2048
rand_sets[217]: 1708
Assign rand_sets[218]: 1275  LLC: 2048
Assign rand_sets[218]: 416  LLC: 2048
rand_sets[218]: 416
Assign rand_sets[219]: 491  LLC: 2048
rand_sets[219]: 491
Assign rand_sets[220]: 183  LLC: 2048
rand_sets[220]: 183
Assign rand_sets[221]: 1657  LLC: 2048
rand_sets[221]: 1657
Assign rand_sets[222]: 1060  LLC: 2048
rand_sets[222]: 1060
Assign rand_sets[223]: 626  LLC: 2048
rand_sets[223]: 626
Assign rand_sets[224]: 1315  LLC: 2048
rand_sets[224]: 1315
Assign rand_sets[225]: 1682  LLC: 2048
rand_sets[225]: 1682
Assign rand_sets[226]: 1352  LLC: 2048
rand_sets[226]: 1352
Assign rand_sets[227]: 1152  LLC: 2048
rand_sets[227]: 1152
Assign rand_sets[228]: 965  LLC: 2048
rand_sets[228]: 965
Assign rand_sets[229]: 1190  LLC: 2048
rand_sets[229]: 1190
Assign rand_sets[230]: 1191  LLC: 2048
rand_sets[230]: 1191
Assign rand_sets[231]: 645  LLC: 2048
rand_sets[231]: 645
Assign rand_sets[232]: 695  LLC: 2048
rand_sets[232]: 695
Assign rand_sets[233]: 1495  LLC: 2048
rand_sets[233]: 1495
Assign rand_sets[234]: 1932  LLC: 2048
rand_sets[234]: 1932
Assign rand_sets[235]: 656  LLC: 2048
rand_sets[235]: 656
Assign rand_sets[236]: 1508  LLC: 2048
rand_sets[236]: 1508
Assign rand_sets[237]: 939  LLC: 2048
rand_sets[237]: 939
Assign rand_sets[238]: 355  LLC: 2048
rand_sets[238]: 355
Assign rand_sets[239]: 1092  LLC: 2048
rand_sets[239]: 1092
Assign rand_sets[240]: 850  LLC: 2048
rand_sets[240]: 850
Assign rand_sets[241]: 102  LLC: 2048
rand_sets[241]: 102
Assign rand_sets[242]: 1763  LLC: 2048
rand_sets[242]: 1763
Assign rand_sets[243]: 668  LLC: 2048
Assign rand_sets[243]: 51  LLC: 2048
rand_sets[243]: 51
Assign rand_sets[244]: 1317  LLC: 2048
rand_sets[244]: 1317
Assign rand_sets[245]: 2041  LLC: 2048
rand_sets[245]: 2041
Assign rand_sets[246]: 1374  LLC: 2048
rand_sets[246]: 1374
Assign rand_sets[247]: 682  LLC: 2048
rand_sets[247]: 682
Assign rand_sets[248]: 1466  LLC: 2048
rand_sets[248]: 1466
Assign rand_sets[249]: 1139  LLC: 2048
rand_sets[249]: 1139
Assign rand_sets[250]: 1632  LLC: 2048
rand_sets[250]: 1632
Assign rand_sets[251]: 1117  LLC: 2048
rand_sets[251]: 1117
Assign rand_sets[252]: 1611  LLC: 2048
rand_sets[252]: 1611
Assign rand_sets[253]: 1905  LLC: 2048
rand_sets[253]: 1905
Assign rand_sets[254]: 1662  LLC: 2048
Assign rand_sets[254]: 446  LLC: 2048
rand_sets[254]: 446
Assign rand_sets[255]: 1705  LLC: 2048
rand_sets[255]: 1705

Warmup complete CPU 0 instructions: 1000001 cycles: 460960 (Simulation time: 0 hr 0 min 1 sec) 

Heartbeat CPU 0 instructions: 10000003 cycles: 10303043 heartbeat IPC: 0.970587 cumulative IPC: 0.914441 (Simulation time: 0 hr 0 min 9 sec) 
Heartbeat CPU 0 instructions: 20000002 cycles: 21091488 heartbeat IPC: 0.926918 cumulative IPC: 0.920965 (Simulation time: 0 hr 0 min 17 sec) 
Heartbeat CPU 0 instructions: 30000001 cycles: 31875110 heartbeat IPC: 0.927332 cumulative IPC: 0.923151 (Simulation time: 0 hr 0 min 26 sec) 
Heartbeat CPU 0 instructions: 40000002 cycles: 42634309 heartbeat IPC: 0.929437 cumulative IPC: 0.924755 (Simulation time: 0 hr 0 min 34 sec) 
Heartbeat CPU 0 instructions: 50000001 cycles: 53391790 heartbeat IPC: 0.929586 cumulative IPC: 0.925736 (Simulation time: 0 hr 0 min 43 sec) 
Finished CPU 0 instructions: 50000000 cycles: 54000447 cumulative IPC: 0.925918 (Simulation time: 0 hr 0 min 44 sec) 

ChampSim completed all CPUs

Region of Interest Statistics

CPU 0 cumulative IPC: 0.925918 instructions: 50000000 cycles: 54000447
L1D TOTAL     ACCESS:   15362495  HIT:   15226941  MISS:     135554
L1D LOAD      ACCESS:    9626079  HIT:    9504489  MISS:     121590
L1D RFO       ACCESS:    5736416  HIT:    5722452  MISS:      13964
L1D PREFETCH  ACCESS:          0  HIT:          0  MISS:          0
L1D WRITEBACK ACCESS:          0  HIT:          0  MISS:          0
L1D PREFETCH  REQUESTED:          0  ISSUED:          0  USEFUL:          0  USELESS:          0
L1D AVERAGE MISS LATENCY: 18.38 cycles
L1I TOTAL     ACCESS:   10183338  HIT:   10180650  MISS:       2688
L1I LOAD      ACCESS:   10183338  HIT:   10180650  MISS:       2688
L1I RFO       ACCESS:          0  HIT:          0  MISS:          0
L1I PREFETCH  ACCESS:          0  HIT:          0  MISS:          0
L1I WRITEBACK ACCESS:          0  HIT:          0  MISS:          0
L1I PREFETCH  REQUESTED:          0  ISSUED:          0  USEFUL:          0  USELESS:          0
L1I AVERAGE MISS LATENCY: 26.0469 cycles
L2C TOTAL     ACCESS:     383576  HIT:     328194  MISS:      55382
L2C LOAD      ACCESS:     124278  HIT:     111603  MISS:      12675
L2C RFO       ACCESS:      13964  HIT:      13382  MISS:        582
L2C PREFETCH  ACCESS:     220391  HIT:     178461  MISS:      41930
L2C WRITEBACK ACCESS:      24943  HIT:      24748  MISS:        195
L2C PREFETCH  REQUESTED:     225008  ISSUED:     224827  USEFUL:       3191  USELESS:      38632
L2C AVERAGE MISS LATENCY: 51.2692 cycles
LLC TOTAL     ACCESS:      57166  HIT:      49618  MISS:       7548
LLC LOAD      ACCESS:      12628  HIT:      11076  MISS:       1552
LLC RFO       ACCESS:        581  HIT:        416  MISS:        165
LLC PREFETCH  ACCESS:      41978  HIT:      36147  MISS:       5831
LLC WRITEBACK ACCESS:       1979  HIT:       1979  MISS:          0
LLC PREFETCH  REQUESTED:          0  ISSUED:          0  USEFUL:        917  USELESS:          0
LLC AVERAGE MISS LATENCY: 156.743 cycles
Major fault: 0 Minor fault: 428
CPU 0 L2C BOP prefetcher final stats
bop_end_phase_max_round 1258
bop_end_phase_max_score 42
bop_total_phases 1300
bop_fill_called 59935
bop_fill_insert_rr 59935
bop_insert_rr_hit 0
bop_insert_rr_evict 59679
bop_insert_rr_insert 59935
bop_pref_buffer_buffered 0
bop_pref_buffer_spilled 0
bop_pref_buffer_issued 0
bop_pref_issued 233817

Entry 0:   0x3a8818ac4c
Entry 1:   0x3a8818ac4d
Entry 2:   0x3a8818ac4e
Entry 3:   0x3a8818ac4f
Entry 4:   0x3a8818ac50
Entry 5:   0x3a8818ac51
Entry 6:   0x3a8818ac52
Entry 7:   0x3a8818ac53
Entry 8:   0x3a8818ac54
Entry 9:   0x3a8818ac55
Entry 10:   0x3a8818ac56
Entry 11:   0x3a8818ac57
Entry 12:   0x3a8818ac58
Entry 13:   0x3a8818ac59
Entry 14:   0x3a8818ac5a
Entry 15:   0x3a8818ac5b
Entry 16:   0x3a8818ac5c
Entry 17:   0x3f7f4e9f11c
Entry 18:   0x3a8818ac5d
Entry 19:   0x3a8818ac5e
Entry 20:   0x3a8818ac5f
Entry 21:   0x3a8818ac60
Entry 22:   0x3a8818ac61
Entry 23:   0x3a8818ac62
Entry 24:   0x3a8818ac63
Entry 25:   0x3a8818ac64
Entry 26:   0x3a8818ac65
Entry 27:   0x3a8818ac66
Entry 28:   0x3a8818ac67
Entry 29:   0x3a8818ac68
Entry 30:   0x3a8818ac8d
Entry 31:   0x263d5a41c4c
Entry 32:   0x263d5a41c4d
Entry 33:   0x263d5a41c4e
Entry 34:   0x263d5a41c4f
Entry 35:   0x263d5a41c50
Entry 36:   0x263d5a41c51
Entry 37:   0x263d5a41c52
Entry 38:   0x263d5a41c53
Entry 39:   0x263d5a41c54
Entry 40:   0x263d5a41c55
Entry 41:   0x263d5a41c56
Entry 42:   0x263d5a41c57
Entry 43:   0x263d5a41c58
Entry 44:   0x263d5a41c59
Entry 45:   0x263d5a41c5a
Entry 46:   0x263d5a41c5b
Entry 47:   0x263d5a41c5c
Entry 48:   0x263d5a41c5d
Entry 49:   0x263d5a41c5e
Entry 50:   0x263d5a41c5f
Entry 51:   0x263d5a41c60
Entry 52:   0x263d5a41c61
Entry 53:   0x263d5a41c62
Entry 54:   0x263d5a41c63
Entry 55:   0x263d5a41c64
Entry 56:   0x263d5a41c65
Entry 57:   0x263d5a41c66
Entry 58:   0x263d5a41c67
Entry 59:   0x263d5a41c68
Entry 60:   0x263d5a41c69
Entry 61:   0x263d5a41c6a
Entry 62:   0x263d5a41c6b
Entry 63:   0x263d5a41c6c
Entry 64:   0x263d5a41c6d
Entry 65:   0x263d5a41c6e
Entry 66:   0x263d5a41c6f
Entry 67:   0x263d5a41c70
Entry 68:   0x263d5a41c71
Entry 69:   0x263d5a41c72
Entry 70:   0x263d5a41c73
Entry 71:   0x263d5a41c74
Entry 72:   0x263d5a41c75
Entry 73:   0x263d5a41c76
Entry 74:   0x263d5a41c77
Entry 75:   0x263d5a41c78
Entry 76:   0x263d5a41c79
Entry 77:   0x263d5a41c7a
Entry 78:   0x263d5a41c7b
Entry 79:   0x263d5a41c7c
Entry 80:   0x263d5a41c7d
Entry 81:   0x263d5a41c7e
Entry 82:   0x263d5a41c7f
Entry 83:   0x3a8818ac80
Entry 84:   0x3a8818ac81
Entry 85:   0x3a8818ac82
Entry 86:   0x3a8818ac83
Entry 87:   0x3a8818ac84
Entry 88:   0x3f7f4e9f412
Entry 89:   0x3f7f4e9f9e3
Entry 90:   0x3f7f4e9f9e4
Entry 91:   0xa3a0df176f
Entry 92:   0xa3a0df1770
Entry 93:   0x3f7f4e9f21d
Entry 94:   0x3f7f4e9f21e
Entry 95:   0xa3a0df1772
Entry 96:   0xa3a0df1773
Entry 97:   0xa3a0df1774
Entry 98:   0x3f7f4e9f21a
Entry 99:   0x3f7f4e9f21b
Entry 100:   0x3f7f4e9f21c
Entry 101:   0xa3a0df1771
Entry 102:   0xa3a0df1775
Entry 103:   0x3f7f4e9f21f
Entry 104:   0x3f7f4e9f11e
Entry 105:   0x3f7f4e9f11f
Entry 106:   0x3f7f4e9f120
Entry 107:   0x3f7f4e9f121
Entry 108:   0x3f7f4e9f220
Entry 109:   0x3f7f4e9f35a
Entry 110:   0x3f7f4e9f357
Entry 111:   0x3f7f4e9f358
Entry 112:   0x3f7f4e9f359
Entry 113:   0x3a8818acd7
Entry 114:   0x3a8818acd8
Entry 115:   0x3a8818acd9
Entry 116:   0x3a8818acda
Entry 117:   0x3a8818acdb
Entry 118:   0x3f7f4e9f31d
Entry 119:   0x3f7f4e9f2fc
Entry 120:   0x3f7f4e9f2fe
Entry 121:   0x3f7f4e9f2ff
Entry 122:   0x3f7f4e9f31e
Entry 123:   0x3f7f4e9f31f
Entry 124:   0x3f7f4e9f320
Entry 125:   0x3f7f4e9f321
Entry 126:   0x3f7f4e9f35d
Entry 127:   0x3f7f4e9f35e
Entry 128:   0x3f7f4e9f35f
Entry 129:   0x3f7f4e9f39b
Entry 130:   0x3f7f4e9f39c
Entry 131:   0x3f7f4e9f39d
Entry 132:   0x3f7f4e9f39e
Entry 133:   0x3f7f4ea0bab
Entry 134:   0x3f7f4ea0bac
Entry 135:   0x3f7f4ea0bad
Entry 136:   0x3f7f4ea0bae
Entry 137:   0x3f7f4ea0de4
Entry 138:   0x3f7f4ea0b86
Entry 139:   0x3f7f4ea0b8e
Entry 140:   0x3f7f4e9f1f3
Entry 141:   0x3f7f4e9f1f4
Entry 142:   0x3f7f4e9f1f5
Entry 143:   0x3f7f4e9f1f6
Entry 144:   0x3f7f4e9f1f7
Entry 145:   0x3f7f4e9f232
Entry 146:   0x3f7f4e9f233
Entry 147:   0x3f7f4e9f234
Entry 148:   0x3f7f4e9f235
Entry 149:   0xa3a0df17b7
Entry 150:   0xa3a0df17b8
Entry 151:   0xa3a0df177c
Entry 152:   0xa3a0df17b9
Entry 153:   0xa3a0df17ba
Entry 154:   0xa3a0df17bc
Entry 155:   0xa3a0df1739
Entry 156:   0xa3a0df173a
Entry 157:   0xa3a0df173b
Entry 158:   0xa3a0df173c
Entry 159:   0xa3a0df173d
Entry 160:   0xa3a0df173e
Entry 161:   0xa3a0df173f
Entry 162:   0x3f7f4ea0ced
Entry 163:   0x3f7f4ea0d27
Entry 164:   0x3f7f4ea0b01
Entry 165:   0x3f7f4ea0b02
Entry 166:   0x3f7f4ea0f2c
Entry 167:   0x3f7f4ea0be7
Entry 168:   0x3f7f4ea0be8
Entry 169:   0x3f7f4ea0be9
Entry 170:   0x3f7f4ea0f20
Entry 171:   0x3f7f4ea0f21
Entry 172:   0x3f7f4ea0f24
Entry 173:   0x3f7f4ea0d5d
Entry 174:   0x3f7f4ea0f9b
Entry 175:   0x3f7f4ea0f9e
Entry 176:   0x3f7f4ea0db7
Entry 177:   0x3f7f4ea0db8
Entry 178:   0x3f7f4ea0dba
Entry 179:   0x3f7f4ea1431
Entry 180:   0x3f7f4ea1432
Entry 181:   0x3f7f4ea1433
Entry 182:   0x3f7f4ea0dec
Entry 183:   0x3f7f4ea0dee
Entry 184:   0x3f7f4ea0c0a
Entry 185:   0x3f7f4ea0e0a
Entry 186:   0x3f7f4ea0e0d
Entry 187:   0x3f7f4ea1198
Entry 188:   0x3f7f4ea1199
Entry 189:   0x3f7f4ea119a
Entry 190:   0x3f7f4ea119b
Entry 191:   0x3f7f4ea119c
Entry 192:   0x3f7f4ea0d1a
Entry 193:   0x3f7f4ea0bd8
Entry 194:   0x3f7f4ea0bd9
Entry 195:   0x3f7f4ea0eec
Entry 196:   0x3f7f4ea0e27
Entry 197:   0x3f7f4ea0e28
Entry 198:   0x3f7f4ea0e29
Entry 199:   0x3f7f4ea0bbe
Entry 200:   0x3f7f4ea0bbf
Entry 201:   0x3f7f4e9f1f8
Entry 202:   0x3f7f4e9f1f9
Entry 203:   0x3f7f4e9f1fa
Entry 204:   0x3f7f4e9f1fb
Entry 205:   0x3f7f4ea0bc7
Entry 206:   0x3f7f4ea0f1a
Entry 207:   0x3f7f4ea0f1c
Entry 208:   0x3f7f4ea0faa
Entry 209:   0x3f7f4ea0fab
Entry 210:   0x3f7f4ea0fac
Entry 211:   0x3f7f4ea0fae
Entry 212:   0x3f7f4ea0ed3
Entry 213:   0x3f7f4ea0f12
Entry 214:   0x3f7f4ea0f13
Entry 215:   0x3f7f4ea1127
Entry 216:   0x3f7f4ea0fa5
Entry 217:   0x3f7f4ea0dab
Entry 218:   0x3f7f4ea0dad
Entry 219:   0x3f7f4ea0dae
Entry 220:   0x3f7f4ea11e7
Entry 221:   0x3f7f4ea11e9
Entry 222:   0x3f7f4ea0c69
Entry 223:   0x3f7f4ea0d9b
Entry 224:   0x3f7f4ea0d9c
Entry 225:   0x3f7f4ea0d9d
Entry 226:   0x3f7f4ea0d9e
Entry 227:   0x3f7f4ea0dd7
Entry 228:   0x3f7f4ea0dda
Entry 229:   0x3f7f4ea0d1d
Entry 230:   0x3f7f4ea0be4
Entry 231:   0x3f7f4ea0d0d
Entry 232:   0x3f7f4ea0d13
Entry 233:   0x3f7f4ea0d15
Entry 234:   0x3f7f4ea0b7a
Entry 235:   0x3f7f4ea0b7b
Entry 236:   0x3f7f4ea0b7c
Entry 237:   0x3f7f4ea12b3
Entry 238:   0x3f7f4ea12b5
Entry 239:   0x3f7f4ea12f9
Entry 240:   0x3f7f4ea12fb
Entry 241:   0x3f7f4ea12fc
Entry 242:   0x3f7f4ea12fd
Entry 243:   0x3f7f4ea1332
Entry 244:   0x3f7f4ea1333
Entry 245:   0x3f7f4ea1336
Entry 246:   0xa3a0df1732
Entry 247:   0xa3a0df1734
Entry 248:   0xa3a0df1735
Entry 249:   0x3f7f4ea12f7
Entry 250:   0x3f7f4ea12f8
Entry 251:   0x3f7f4ea0f70
Entry 252:   0x3f7f4ea0f71
Entry 253:   0x3f7f4ea0f72
Entry 254:   0x3f7f4ea0f73
Entry 255:   0x3f7f4ea0d0e

DRAM Statistics
 CHANNEL 0
 RQ ROW_BUFFER_HIT:       2211  ROW_BUFFER_MISS:       5337
 DBUS_CONGESTED:       1703
 WQ ROW_BUFFER_HIT:          0  ROW_BUFFER_MISS:          0  FULL:          0

 AVG_CONGESTED_CYCLE: 6

CPU 0 Branch Prediction Accuracy: 90.4189% MPKI: 15.6824 Average ROB Occupancy at Mispredict: 37.6024

Branch types
NOT_BRANCH: 41815667 83.6313%
BRANCH_DIRECT_JUMP: 270179 0.540358%
BRANCH_INDIRECT: 309 0.000618%
BRANCH_CONDITIONAL: 4959752 9.9195%
BRANCH_DIRECT_CALL: 1476873 2.95375%
BRANCH_INDIRECT_CALL: 0 0%
BRANCH_RETURN: 1476872 2.95374%
BRANCH_OTHER: 0 0%

