
*** ChampSim Multicore Out-of-Order Simulator ***

Warmup Instructions: 1000000
Simulation Instructions: 50000000
Number of CPUs: 1
LLC sets: 2048
LLC ways: 16
Off-chip DRAM Size: 4096 MB Channels: 1 Width: 64-bit Data Rate: 3200 MT/s

CPU 0 runs /home/carter/Documents/Homework/Carter-Owens-ECE-Workbook-Spring-2025/ECE-5750-Architecture/assignments/ChampSim/dpc3_traces/649.fotonik3d_s-1176B.champsimtrace.xz
CPU 0 L2C Best Offset prefetcher
Initialize SHIP state
Assign rand_sets[0]: 454  LLC: 2048
rand_sets[0]: 454
Assign rand_sets[1]: 1662  LLC: 2048
rand_sets[1]: 1662
Assign rand_sets[2]: 1921  LLC: 2048
rand_sets[2]: 1921
Assign rand_sets[3]: 1131  LLC: 2048
rand_sets[3]: 1131
Assign rand_sets[4]: 331  LLC: 2048
rand_sets[4]: 331
Assign rand_sets[5]: 1531  LLC: 2048
rand_sets[5]: 1531
Assign rand_sets[6]: 482  LLC: 2048
rand_sets[6]: 482
Assign rand_sets[7]: 1275  LLC: 2048
rand_sets[7]: 1275
Assign rand_sets[8]: 1876  LLC: 2048
rand_sets[8]: 1876
Assign rand_sets[9]: 2038  LLC: 2048
rand_sets[9]: 2038
Assign rand_sets[10]: 701  LLC: 2048
rand_sets[10]: 701
Assign rand_sets[11]: 479  LLC: 2048
rand_sets[11]: 479
Assign rand_sets[12]: 892  LLC: 2048
rand_sets[12]: 892
Assign rand_sets[13]: 1820  LLC: 2048
rand_sets[13]: 1820
Assign rand_sets[14]: 1505  LLC: 2048
rand_sets[14]: 1505
Assign rand_sets[15]: 1159  LLC: 2048
rand_sets[15]: 1159
Assign rand_sets[16]: 513  LLC: 2048
rand_sets[16]: 513
Assign rand_sets[17]: 703  LLC: 2048
rand_sets[17]: 703
Assign rand_sets[18]: 561  LLC: 2048
rand_sets[18]: 561
Assign rand_sets[19]: 990  LLC: 2048
rand_sets[19]: 990
Assign rand_sets[20]: 342  LLC: 2048
rand_sets[20]: 342
Assign rand_sets[21]: 882  LLC: 2048
rand_sets[21]: 882
Assign rand_sets[22]: 15  LLC: 2048
rand_sets[22]: 15
Assign rand_sets[23]: 71  LLC: 2048
rand_sets[23]: 71
Assign rand_sets[24]: 1127  LLC: 2048
rand_sets[24]: 1127
Assign rand_sets[25]: 1382  LLC: 2048
rand_sets[25]: 1382
Assign rand_sets[26]: 647  LLC: 2048
rand_sets[26]: 647
Assign rand_sets[27]: 857  LLC: 2048
rand_sets[27]: 857
Assign rand_sets[28]: 1450  LLC: 2048
rand_sets[28]: 1450
Assign rand_sets[29]: 1160  LLC: 2048
rand_sets[29]: 1160
Assign rand_sets[30]: 1852  LLC: 2048
rand_sets[30]: 1852
Assign rand_sets[31]: 1881  LLC: 2048
rand_sets[31]: 1881
Assign rand_sets[32]: 1770  LLC: 2048
rand_sets[32]: 1770
Assign rand_sets[33]: 1622  LLC: 2048
rand_sets[33]: 1622
Assign rand_sets[34]: 275  LLC: 2048
rand_sets[34]: 275
Assign rand_sets[35]: 635  LLC: 2048
rand_sets[35]: 635
Assign rand_sets[36]: 466  LLC: 2048
rand_sets[36]: 466
Assign rand_sets[37]: 1413  LLC: 2048
rand_sets[37]: 1413
Assign rand_sets[38]: 417  LLC: 2048
rand_sets[38]: 417
Assign rand_sets[39]: 472  LLC: 2048
rand_sets[39]: 472
Assign rand_sets[40]: 1340  LLC: 2048
rand_sets[40]: 1340
Assign rand_sets[41]: 852  LLC: 2048
rand_sets[41]: 852
Assign rand_sets[42]: 1365  LLC: 2048
rand_sets[42]: 1365
Assign rand_sets[43]: 47  LLC: 2048
rand_sets[43]: 47
Assign rand_sets[44]: 823  LLC: 2048
rand_sets[44]: 823
Assign rand_sets[45]: 686  LLC: 2048
rand_sets[45]: 686
Assign rand_sets[46]: 1637  LLC: 2048
rand_sets[46]: 1637
Assign rand_sets[47]: 1115  LLC: 2048
rand_sets[47]: 1115
Assign rand_sets[48]: 986  LLC: 2048
rand_sets[48]: 986
Assign rand_sets[49]: 258  LLC: 2048
rand_sets[49]: 258
Assign rand_sets[50]: 633  LLC: 2048
rand_sets[50]: 633
Assign rand_sets[51]: 920  LLC: 2048
rand_sets[51]: 920
Assign rand_sets[52]: 204  LLC: 2048
rand_sets[52]: 204
Assign rand_sets[53]: 227  LLC: 2048
rand_sets[53]: 227
Assign rand_sets[54]: 1818  LLC: 2048
rand_sets[54]: 1818
Assign rand_sets[55]: 886  LLC: 2048
rand_sets[55]: 886
Assign rand_sets[56]: 1422  LLC: 2048
rand_sets[56]: 1422
Assign rand_sets[57]: 607  LLC: 2048
rand_sets[57]: 607
Assign rand_sets[58]: 217  LLC: 2048
rand_sets[58]: 217
Assign rand_sets[59]: 1945  LLC: 2048
rand_sets[59]: 1945
Assign rand_sets[60]: 143  LLC: 2048
rand_sets[60]: 143
Assign rand_sets[61]: 1311  LLC: 2048
rand_sets[61]: 1311
Assign rand_sets[62]: 319  LLC: 2048
rand_sets[62]: 319
Assign rand_sets[63]: 1846  LLC: 2048
rand_sets[63]: 1846
Assign rand_sets[64]: 238  LLC: 2048
rand_sets[64]: 238
Assign rand_sets[65]: 67  LLC: 2048
rand_sets[65]: 67
Assign rand_sets[66]: 1912  LLC: 2048
rand_sets[66]: 1912
Assign rand_sets[67]: 1613  LLC: 2048
rand_sets[67]: 1613
Assign rand_sets[68]: 1293  LLC: 2048
rand_sets[68]: 1293
Assign rand_sets[69]: 1018  LLC: 2048
rand_sets[69]: 1018
Assign rand_sets[70]: 1982  LLC: 2048
rand_sets[70]: 1982
Assign rand_sets[71]: 1702  LLC: 2048
rand_sets[71]: 1702
Assign rand_sets[72]: 1498  LLC: 2048
rand_sets[72]: 1498
Assign rand_sets[73]: 228  LLC: 2048
rand_sets[73]: 228
Assign rand_sets[74]: 1414  LLC: 2048
rand_sets[74]: 1414
Assign rand_sets[75]: 1166  LLC: 2048
rand_sets[75]: 1166
Assign rand_sets[76]: 732  LLC: 2048
rand_sets[76]: 732
Assign rand_sets[77]: 297  LLC: 2048
rand_sets[77]: 297
Assign rand_sets[78]: 1133  LLC: 2048
rand_sets[78]: 1133
Assign rand_sets[79]: 846  LLC: 2048
rand_sets[79]: 846
Assign rand_sets[80]: 767  LLC: 2048
rand_sets[80]: 767
Assign rand_sets[81]: 1878  LLC: 2048
rand_sets[81]: 1878
Assign rand_sets[82]: 993  LLC: 2048
rand_sets[82]: 993
Assign rand_sets[83]: 1392  LLC: 2048
rand_sets[83]: 1392
Assign rand_sets[84]: 1568  LLC: 2048
rand_sets[84]: 1568
Assign rand_sets[85]: 1787  LLC: 2048
rand_sets[85]: 1787
Assign rand_sets[86]: 399  LLC: 2048
rand_sets[86]: 399
Assign rand_sets[87]: 1201  LLC: 2048
rand_sets[87]: 1201
Assign rand_sets[88]: 856  LLC: 2048
rand_sets[88]: 856
Assign rand_sets[89]: 773  LLC: 2048
rand_sets[89]: 773
Assign rand_sets[90]: 1680  LLC: 2048
rand_sets[90]: 1680
Assign rand_sets[91]: 1477  LLC: 2048
rand_sets[91]: 1477
Assign rand_sets[92]: 9  LLC: 2048
rand_sets[92]: 9
Assign rand_sets[93]: 1500  LLC: 2048
rand_sets[93]: 1500
Assign rand_sets[94]: 851  LLC: 2048
rand_sets[94]: 851
Assign rand_sets[95]: 973  LLC: 2048
rand_sets[95]: 973
Assign rand_sets[96]: 938  LLC: 2048
rand_sets[96]: 938
Assign rand_sets[97]: 1851  LLC: 2048
rand_sets[97]: 1851
Assign rand_sets[98]: 1608  LLC: 2048
rand_sets[98]: 1608
Assign rand_sets[99]: 1945  LLC: 2048
Assign rand_sets[99]: 1106  LLC: 2048
rand_sets[99]: 1106
Assign rand_sets[100]: 979  LLC: 2048
rand_sets[100]: 979
Assign rand_sets[101]: 338  LLC: 2048
rand_sets[101]: 338
Assign rand_sets[102]: 1693  LLC: 2048
rand_sets[102]: 1693
Assign rand_sets[103]: 6  LLC: 2048
rand_sets[103]: 6
Assign rand_sets[104]: 671  LLC: 2048
rand_sets[104]: 671
Assign rand_sets[105]: 490  LLC: 2048
rand_sets[105]: 490
Assign rand_sets[106]: 1461  LLC: 2048
rand_sets[106]: 1461
Assign rand_sets[107]: 1730  LLC: 2048
rand_sets[107]: 1730
Assign rand_sets[108]: 1030  LLC: 2048
rand_sets[108]: 1030
Assign rand_sets[109]: 19  LLC: 2048
rand_sets[109]: 19
Assign rand_sets[110]: 920  LLC: 2048
Assign rand_sets[110]: 329  LLC: 2048
rand_sets[110]: 329
Assign rand_sets[111]: 1714  LLC: 2048
rand_sets[111]: 1714
Assign rand_sets[112]: 1  LLC: 2048
rand_sets[112]: 1
Assign rand_sets[113]: 1822  LLC: 2048
rand_sets[113]: 1822
Assign rand_sets[114]: 172  LLC: 2048
rand_sets[114]: 172
Assign rand_sets[115]: 1586  LLC: 2048
rand_sets[115]: 1586
Assign rand_sets[116]: 648  LLC: 2048
rand_sets[116]: 648
Assign rand_sets[117]: 1329  LLC: 2048
rand_sets[117]: 1329
Assign rand_sets[118]: 668  LLC: 2048
rand_sets[118]: 668
Assign rand_sets[119]: 1874  LLC: 2048
rand_sets[119]: 1874
Assign rand_sets[120]: 70  LLC: 2048
rand_sets[120]: 70
Assign rand_sets[121]: 661  LLC: 2048
rand_sets[121]: 661
Assign rand_sets[122]: 1649  LLC: 2048
rand_sets[122]: 1649
Assign rand_sets[123]: 1590  LLC: 2048
rand_sets[123]: 1590
Assign rand_sets[124]: 911  LLC: 2048
rand_sets[124]: 911
Assign rand_sets[125]: 1367  LLC: 2048
rand_sets[125]: 1367
Assign rand_sets[126]: 1782  LLC: 2048
rand_sets[126]: 1782
Assign rand_sets[127]: 569  LLC: 2048
rand_sets[127]: 569
Assign rand_sets[128]: 1309  LLC: 2048
rand_sets[128]: 1309
Assign rand_sets[129]: 534  LLC: 2048
rand_sets[129]: 534
Assign rand_sets[130]: 1274  LLC: 2048
rand_sets[130]: 1274
Assign rand_sets[131]: 904  LLC: 2048
rand_sets[131]: 904
Assign rand_sets[132]: 1908  LLC: 2048
rand_sets[132]: 1908
Assign rand_sets[133]: 245  LLC: 2048
rand_sets[133]: 245
Assign rand_sets[134]: 1688  LLC: 2048
rand_sets[134]: 1688
Assign rand_sets[135]: 1660  LLC: 2048
rand_sets[135]: 1660
Assign rand_sets[136]: 1303  LLC: 2048
rand_sets[136]: 1303
Assign rand_sets[137]: 1628  LLC: 2048
rand_sets[137]: 1628
Assign rand_sets[138]: 1857  LLC: 2048
rand_sets[138]: 1857
Assign rand_sets[139]: 187  LLC: 2048
rand_sets[139]: 187
Assign rand_sets[140]: 1389  LLC: 2048
rand_sets[140]: 1389
Assign rand_sets[141]: 881  LLC: 2048
rand_sets[141]: 881
Assign rand_sets[142]: 1166  LLC: 2048
Assign rand_sets[142]: 1039  LLC: 2048
rand_sets[142]: 1039
Assign rand_sets[143]: 1136  LLC: 2048
rand_sets[143]: 1136
Assign rand_sets[144]: 601  LLC: 2048
rand_sets[144]: 601
Assign rand_sets[145]: 967  LLC: 2048
rand_sets[145]: 967
Assign rand_sets[146]: 769  LLC: 2048
rand_sets[146]: 769
Assign rand_sets[147]: 283  LLC: 2048
rand_sets[147]: 283
Assign rand_sets[148]: 559  LLC: 2048
rand_sets[148]: 559
Assign rand_sets[149]: 1075  LLC: 2048
rand_sets[149]: 1075
Assign rand_sets[150]: 829  LLC: 2048
rand_sets[150]: 829
Assign rand_sets[151]: 1681  LLC: 2048
rand_sets[151]: 1681
Assign rand_sets[152]: 1728  LLC: 2048
rand_sets[152]: 1728
Assign rand_sets[153]: 541  LLC: 2048
rand_sets[153]: 541
Assign rand_sets[154]: 421  LLC: 2048
rand_sets[154]: 421
Assign rand_sets[155]: 1037  LLC: 2048
rand_sets[155]: 1037
Assign rand_sets[156]: 13  LLC: 2048
rand_sets[156]: 13
Assign rand_sets[157]: 1707  LLC: 2048
rand_sets[157]: 1707
Assign rand_sets[158]: 1075  LLC: 2048
Assign rand_sets[158]: 1933  LLC: 2048
rand_sets[158]: 1933
Assign rand_sets[159]: 1406  LLC: 2048
rand_sets[159]: 1406
Assign rand_sets[160]: 94  LLC: 2048
rand_sets[160]: 94
Assign rand_sets[161]: 1423  LLC: 2048
rand_sets[161]: 1423
Assign rand_sets[162]: 1854  LLC: 2048
rand_sets[162]: 1854
Assign rand_sets[163]: 230  LLC: 2048
rand_sets[163]: 230
Assign rand_sets[164]: 104  LLC: 2048
rand_sets[164]: 104
Assign rand_sets[165]: 1652  LLC: 2048
rand_sets[165]: 1652
Assign rand_sets[166]: 1446  LLC: 2048
rand_sets[166]: 1446
Assign rand_sets[167]: 1338  LLC: 2048
rand_sets[167]: 1338
Assign rand_sets[168]: 177  LLC: 2048
rand_sets[168]: 177
Assign rand_sets[169]: 195  LLC: 2048
rand_sets[169]: 195
Assign rand_sets[170]: 1171  LLC: 2048
rand_sets[170]: 1171
Assign rand_sets[171]: 1297  LLC: 2048
rand_sets[171]: 1297
Assign rand_sets[172]: 1704  LLC: 2048
rand_sets[172]: 1704
Assign rand_sets[173]: 100  LLC: 2048
rand_sets[173]: 100
Assign rand_sets[174]: 711  LLC: 2048
rand_sets[174]: 711
Assign rand_sets[175]: 1243  LLC: 2048
rand_sets[175]: 1243
Assign rand_sets[176]: 1738  LLC: 2048
rand_sets[176]: 1738
Assign rand_sets[177]: 1504  LLC: 2048
rand_sets[177]: 1504
Assign rand_sets[178]: 96  LLC: 2048
rand_sets[178]: 96
Assign rand_sets[179]: 1249  LLC: 2048
rand_sets[179]: 1249
Assign rand_sets[180]: 1267  LLC: 2048
rand_sets[180]: 1267
Assign rand_sets[181]: 1727  LLC: 2048
rand_sets[181]: 1727
Assign rand_sets[182]: 1545  LLC: 2048
rand_sets[182]: 1545
Assign rand_sets[183]: 1792  LLC: 2048
rand_sets[183]: 1792
Assign rand_sets[184]: 1383  LLC: 2048
rand_sets[184]: 1383
Assign rand_sets[185]: 1954  LLC: 2048
rand_sets[185]: 1954
Assign rand_sets[186]: 739  LLC: 2048
rand_sets[186]: 739
Assign rand_sets[187]: 1061  LLC: 2048
rand_sets[187]: 1061
Assign rand_sets[188]: 672  LLC: 2048
rand_sets[188]: 672
Assign rand_sets[189]: 1057  LLC: 2048
rand_sets[189]: 1057
Assign rand_sets[190]: 1329  LLC: 2048
Assign rand_sets[190]: 1415  LLC: 2048
rand_sets[190]: 1415
Assign rand_sets[191]: 981  LLC: 2048
rand_sets[191]: 981
Assign rand_sets[192]: 98  LLC: 2048
rand_sets[192]: 98
Assign rand_sets[193]: 453  LLC: 2048
rand_sets[193]: 453
Assign rand_sets[194]: 1448  LLC: 2048
rand_sets[194]: 1448
Assign rand_sets[195]: 79  LLC: 2048
rand_sets[195]: 79
Assign rand_sets[196]: 126  LLC: 2048
rand_sets[196]: 126
Assign rand_sets[197]: 1582  LLC: 2048
rand_sets[197]: 1582
Assign rand_sets[198]: 1289  LLC: 2048
rand_sets[198]: 1289
Assign rand_sets[199]: 875  LLC: 2048
rand_sets[199]: 875
Assign rand_sets[200]: 404  LLC: 2048
rand_sets[200]: 404
Assign rand_sets[201]: 415  LLC: 2048
rand_sets[201]: 415
Assign rand_sets[202]: 1712  LLC: 2048
rand_sets[202]: 1712
Assign rand_sets[203]: 1389  LLC: 2048
Assign rand_sets[203]: 169  LLC: 2048
rand_sets[203]: 169
Assign rand_sets[204]: 158  LLC: 2048
rand_sets[204]: 158
Assign rand_sets[205]: 90  LLC: 2048
rand_sets[205]: 90
Assign rand_sets[206]: 1291  LLC: 2048
rand_sets[206]: 1291
Assign rand_sets[207]: 838  LLC: 2048
rand_sets[207]: 838
Assign rand_sets[208]: 1904  LLC: 2048
rand_sets[208]: 1904
Assign rand_sets[209]: 640  LLC: 2048
rand_sets[209]: 640
Assign rand_sets[210]: 1462  LLC: 2048
rand_sets[210]: 1462
Assign rand_sets[211]: 1487  LLC: 2048
rand_sets[211]: 1487
Assign rand_sets[212]: 1863  LLC: 2048
rand_sets[212]: 1863
Assign rand_sets[213]: 1036  LLC: 2048
rand_sets[213]: 1036
Assign rand_sets[214]: 1702  LLC: 2048
Assign rand_sets[214]: 933  LLC: 2048
rand_sets[214]: 933
Assign rand_sets[215]: 554  LLC: 2048
rand_sets[215]: 554
Assign rand_sets[216]: 1496  LLC: 2048
rand_sets[216]: 1496
Assign rand_sets[217]: 1708  LLC: 2048
rand_sets[217]: 1708
Assign rand_sets[218]: 1275  LLC: 2048
Assign rand_sets[218]: 416  LLC: 2048
rand_sets[218]: 416
Assign rand_sets[219]: 491  LLC: 2048
rand_sets[219]: 491
Assign rand_sets[220]: 183  LLC: 2048
rand_sets[220]: 183
Assign rand_sets[221]: 1657  LLC: 2048
rand_sets[221]: 1657
Assign rand_sets[222]: 1060  LLC: 2048
rand_sets[222]: 1060
Assign rand_sets[223]: 626  LLC: 2048
rand_sets[223]: 626
Assign rand_sets[224]: 1315  LLC: 2048
rand_sets[224]: 1315
Assign rand_sets[225]: 1682  LLC: 2048
rand_sets[225]: 1682
Assign rand_sets[226]: 1352  LLC: 2048
rand_sets[226]: 1352
Assign rand_sets[227]: 1152  LLC: 2048
rand_sets[227]: 1152
Assign rand_sets[228]: 965  LLC: 2048
rand_sets[228]: 965
Assign rand_sets[229]: 1190  LLC: 2048
rand_sets[229]: 1190
Assign rand_sets[230]: 1191  LLC: 2048
rand_sets[230]: 1191
Assign rand_sets[231]: 645  LLC: 2048
rand_sets[231]: 645
Assign rand_sets[232]: 695  LLC: 2048
rand_sets[232]: 695
Assign rand_sets[233]: 1495  LLC: 2048
rand_sets[233]: 1495
Assign rand_sets[234]: 1932  LLC: 2048
rand_sets[234]: 1932
Assign rand_sets[235]: 656  LLC: 2048
rand_sets[235]: 656
Assign rand_sets[236]: 1508  LLC: 2048
rand_sets[236]: 1508
Assign rand_sets[237]: 939  LLC: 2048
rand_sets[237]: 939
Assign rand_sets[238]: 355  LLC: 2048
rand_sets[238]: 355
Assign rand_sets[239]: 1092  LLC: 2048
rand_sets[239]: 1092
Assign rand_sets[240]: 850  LLC: 2048
rand_sets[240]: 850
Assign rand_sets[241]: 102  LLC: 2048
rand_sets[241]: 102
Assign rand_sets[242]: 1763  LLC: 2048
rand_sets[242]: 1763
Assign rand_sets[243]: 668  LLC: 2048
Assign rand_sets[243]: 51  LLC: 2048
rand_sets[243]: 51
Assign rand_sets[244]: 1317  LLC: 2048
rand_sets[244]: 1317
Assign rand_sets[245]: 2041  LLC: 2048
rand_sets[245]: 2041
Assign rand_sets[246]: 1374  LLC: 2048
rand_sets[246]: 1374
Assign rand_sets[247]: 682  LLC: 2048
rand_sets[247]: 682
Assign rand_sets[248]: 1466  LLC: 2048
rand_sets[248]: 1466
Assign rand_sets[249]: 1139  LLC: 2048
rand_sets[249]: 1139
Assign rand_sets[250]: 1632  LLC: 2048
rand_sets[250]: 1632
Assign rand_sets[251]: 1117  LLC: 2048
rand_sets[251]: 1117
Assign rand_sets[252]: 1611  LLC: 2048
rand_sets[252]: 1611
Assign rand_sets[253]: 1905  LLC: 2048
rand_sets[253]: 1905
Assign rand_sets[254]: 1662  LLC: 2048
Assign rand_sets[254]: 446  LLC: 2048
rand_sets[254]: 446
Assign rand_sets[255]: 1705  LLC: 2048
rand_sets[255]: 1705

Warmup complete CPU 0 instructions: 1000001 cycles: 405625 (Simulation time: 0 hr 0 min 1 sec) 

Heartbeat CPU 0 instructions: 10000003 cycles: 5492086 heartbeat IPC: 1.8208 cumulative IPC: 1.7694 (Simulation time: 0 hr 0 min 12 sec) 
Heartbeat CPU 0 instructions: 20000000 cycles: 11342200 heartbeat IPC: 1.70937 cumulative IPC: 1.73729 (Simulation time: 0 hr 0 min 25 sec) 
Heartbeat CPU 0 instructions: 30000000 cycles: 17183826 heartbeat IPC: 1.71185 cumulative IPC: 1.72843 (Simulation time: 0 hr 0 min 37 sec) 
Heartbeat CPU 0 instructions: 40000003 cycles: 23034454 heartbeat IPC: 1.70922 cumulative IPC: 1.72347 (Simulation time: 0 hr 0 min 50 sec) 
Heartbeat CPU 0 instructions: 50000002 cycles: 28880000 heartbeat IPC: 1.7107 cumulative IPC: 1.72085 (Simulation time: 0 hr 1 min 2 sec) 
Finished CPU 0 instructions: 50000001 cycles: 29058046 cumulative IPC: 1.72069 (Simulation time: 0 hr 1 min 3 sec) 

ChampSim completed all CPUs

Region of Interest Statistics

CPU 0 cumulative IPC: 1.72069 instructions: 50000001 cycles: 29058046
L1D TOTAL     ACCESS:   10593922  HIT:    9932225  MISS:     661697
L1D LOAD      ACCESS:    7085207  HIT:    6424280  MISS:     660927
L1D RFO       ACCESS:    3508715  HIT:    3507945  MISS:        770
L1D PREFETCH  ACCESS:          0  HIT:          0  MISS:          0
L1D WRITEBACK ACCESS:          0  HIT:          0  MISS:          0
L1D PREFETCH  REQUESTED:          0  ISSUED:          0  USEFUL:          0  USELESS:          0
L1D AVERAGE MISS LATENCY: 24.8765 cycles
L1I TOTAL     ACCESS:    9137642  HIT:    9137642  MISS:          0
L1I LOAD      ACCESS:    9137642  HIT:    9137642  MISS:          0
L1I RFO       ACCESS:          0  HIT:          0  MISS:          0
L1I PREFETCH  ACCESS:          0  HIT:          0  MISS:          0
L1I WRITEBACK ACCESS:          0  HIT:          0  MISS:          0
L1I PREFETCH  REQUESTED:          0  ISSUED:          0  USEFUL:          0  USELESS:          0
L1I AVERAGE MISS LATENCY: -nan cycles
L2C TOTAL     ACCESS:    2844452  HIT:    2177307  MISS:     667145
L2C LOAD      ACCESS:     660928  HIT:     576110  MISS:      84818
L2C RFO       ACCESS:        770  HIT:        110  MISS:        660
L2C PREFETCH  ACCESS:    1743494  HIT:    1161827  MISS:     581667
L2C WRITEBACK ACCESS:     439260  HIT:     439260  MISS:          0
L2C PREFETCH  REQUESTED:    2484547  ISSUED:    2484496  USEFUL:     574772  USELESS:       6844
L2C AVERAGE MISS LATENCY: 132.617 cycles
LLC TOTAL     ACCESS:    1106103  HIT:     256249  MISS:     849854
LLC LOAD      ACCESS:      18808  HIT:       7644  MISS:      11164
LLC RFO       ACCESS:        660  HIT:        660  MISS:          0
LLC PREFETCH  ACCESS:     647677  HIT:     220049  MISS:     427628
LLC WRITEBACK ACCESS:     438958  HIT:      27896  MISS:     411062
LLC PREFETCH  REQUESTED:          0  ISSUED:          0  USEFUL:        200  USELESS:     434723
LLC AVERAGE MISS LATENCY: 95.6038 cycles
Major fault: 0 Minor fault: 7052
CPU 0 L2C BOP prefetcher final stats
bop_end_phase_max_round 0
bop_end_phase_max_score 21393
bop_total_phases 21393
bop_fill_called 680524
bop_fill_insert_rr 680524
bop_insert_rr_hit 0
bop_insert_rr_evict 680268
bop_insert_rr_insert 680524
bop_pref_buffer_buffered 0
bop_pref_buffer_spilled 0
bop_pref_buffer_issued 0
bop_pref_issued 2530992

Entry 0:   0x3f7f4e9f4ae
Entry 1:   0xe8111cdc10
Entry 2:   0xe8111cdc11
Entry 3:   0xe8111cdc13
Entry 4:   0xe8111cdc14
Entry 5:   0x3f7f4e9f4af
Entry 6:   0xe8111cdc12
Entry 7:   0x3f7f4e9f4b0
Entry 8:   0xe8111cdc15
Entry 9:   0xe8111cdc16
Entry 10:   0x3f7f4e9f4b1
Entry 11:   0xe8111cdc17
Entry 12:   0x3f7f4e9f4b2
Entry 13:   0xe8111cdc18
Entry 14:   0xe8111cdc19
Entry 15:   0x3f7f4e9f4b3
Entry 16:   0xe8111cdc1a
Entry 17:   0xe8111cdc1d
Entry 18:   0xe8111cdc1b
Entry 19:   0xe8111cdc1c
Entry 20:   0x3f7f4e9f4b4
Entry 21:   0xe8111cdc1e
Entry 22:   0xe8111cdc1f
Entry 23:   0xe8111cdc20
Entry 24:   0xe8111cdc21
Entry 25:   0xe8111cdc22
Entry 26:   0x3f7f4e9f4b5
Entry 27:   0xe8111cdc23
Entry 28:   0x3f7f4e9f4b6
Entry 29:   0xe8111cdc24
Entry 30:   0xe8111cdc25
Entry 31:   0x3f7f4e9f4b7
Entry 32:   0xe8111cdc26
Entry 33:   0xe8111cdc28
Entry 34:   0xe8111cdc29
Entry 35:   0x3f7f4e9f4b8
Entry 36:   0xe8111cdc27
Entry 37:   0xe8111cdc2a
Entry 38:   0xe8111cdc2b
Entry 39:   0xe8111cdc2c
Entry 40:   0x3f7f4e9f4b9
Entry 41:   0x3f7f4e9f4ba
Entry 42:   0xe8111cdc2d
Entry 43:   0x3f7f4e9f4bb
Entry 44:   0x3f7f4e9f4bd
Entry 45:   0x3f7f4e9f4bf
Entry 46:   0xe8111cdc2e
Entry 47:   0xe8111cdc2f
Entry 48:   0xe8111cdc36
Entry 49:   0x3f7f4e9f4bc
Entry 50:   0x3f7f4e9f4be
Entry 51:   0xe8111cdc30
Entry 52:   0xe8111cdc31
Entry 53:   0xe8111cdc32
Entry 54:   0xe8111cdc34
Entry 55:   0xe8111cdc35
Entry 56:   0xe8111cdc37
Entry 57:   0xe8111cdc38
Entry 58:   0xe8111cdc33
Entry 59:   0xe8111cdc39
Entry 60:   0xe8111cdc3a
Entry 61:   0xe8111cdc3c
Entry 62:   0xe8111cdc3b
Entry 63:   0xe8111cdc3d
Entry 64:   0xe8111cdc3e
Entry 65:   0xe8111cdc3f
Entry 66:   0x3f7f4e9f540
Entry 67:   0x3f7f4e9f542
Entry 68:   0x3f7f4e9f544
Entry 69:   0x3f7f4e9f546
Entry 70:   0x3f7f4e9f548
Entry 71:   0xe8111cdc40
Entry 72:   0xe8111cdc42
Entry 73:   0xe8111cdc44
Entry 74:   0xe8111cdc46
Entry 75:   0xe8111cdc41
Entry 76:   0xe8111cdc43
Entry 77:   0xe8111cdc45
Entry 78:   0xe8111cdc47
Entry 79:   0xe8111cdc48
Entry 80:   0xe8111cdc49
Entry 81:   0x3f7f4e9f541
Entry 82:   0x3f7f4e9f543
Entry 83:   0x3f7f4e9f545
Entry 84:   0x3f7f4e9f547
Entry 85:   0x3f7f4e9f549
Entry 86:   0x3f7f4e9f54a
Entry 87:   0x3f7f4e9f54b
Entry 88:   0xe8111cdc4a
Entry 89:   0xe8111cdc4b
Entry 90:   0x3f7f4e9f54c
Entry 91:   0xe8111cdc4c
Entry 92:   0xe8111cdc4d
Entry 93:   0x3f7f4e9f54d
Entry 94:   0xe8111cdc4e
Entry 95:   0xe8111cdc4f
Entry 96:   0x3f7f4e9f54e
Entry 97:   0xe8111cdc52
Entry 98:   0xe8111cdc50
Entry 99:   0xe8111cdc51
Entry 100:   0xe8111cdc53
Entry 101:   0x3f7f4e9f54f
Entry 102:   0x3f7f4e9f550
Entry 103:   0xe8111cdc54
Entry 104:   0xe8111cdc55
Entry 105:   0xe8111cdc58
Entry 106:   0x3f7f4e9f551
Entry 107:   0xe8111cdc56
Entry 108:   0xe8111cdc57
Entry 109:   0xe8111cdc59
Entry 110:   0x3f7f4e9f552
Entry 111:   0xe8111cdc5a
Entry 112:   0x3f7f4e9f553
Entry 113:   0xe8111cdc5c
Entry 114:   0xe8111cdc5b
Entry 115:   0xe8111cdc5d
Entry 116:   0x3f7f4e9f554
Entry 117:   0xe8111cdc5e
Entry 118:   0xe8111cdc5f
Entry 119:   0xe8111cdc60
Entry 120:   0xe8111cdc61
Entry 121:   0xe8111cdc62
Entry 122:   0x3f7f4e9f555
Entry 123:   0xe8111cdc63
Entry 124:   0x3f7f4e9f556
Entry 125:   0xe8111cdc64
Entry 126:   0xe8111cdc65
Entry 127:   0xe8111cdc66
Entry 128:   0x3f7f4e9f557
Entry 129:   0xe8111cdc68
Entry 130:   0xe8111cdc69
Entry 131:   0xe8111cdc67
Entry 132:   0x3f7f4e9f558
Entry 133:   0xe8111cdc6a
Entry 134:   0x3f7f4e9f559
Entry 135:   0x3f7f4e9f55a
Entry 136:   0xe8111cdc6b
Entry 137:   0xe8111cdc6c
Entry 138:   0xe8111cdc6d
Entry 139:   0xe8111cdc6e
Entry 140:   0xe8111cdc6f
Entry 141:   0xe8111cdc70
Entry 142:   0x3f7f4e9f55b
Entry 143:   0x3f7f4e9f55d
Entry 144:   0x3f7f4e9f55f
Entry 145:   0x3f7f4e9f55c
Entry 146:   0x3f7f4e9f55e
Entry 147:   0x3f7f4e9f560
Entry 148:   0x3f7f4e9f561
Entry 149:   0xe8111cdc71
Entry 150:   0xe8111cdc73
Entry 151:   0xe8111cdc75
Entry 152:   0xe8111cdc72
Entry 153:   0xe8111cdc74
Entry 154:   0xe8111cdc76
Entry 155:   0xe8111cdc77
Entry 156:   0xe8111cdc79
Entry 157:   0xe8111cdc7a
Entry 158:   0x3f7f4e9f562
Entry 159:   0x3f7f4e9f563
Entry 160:   0x3f7f4e9f564
Entry 161:   0xe8111cdc78
Entry 162:   0xe8111cdc7b
Entry 163:   0xe8111cdc7c
Entry 164:   0xe8111cdc7d
Entry 165:   0xe8111cdc7e
Entry 166:   0xe8111cdc7f
Entry 167:   0x3f7f4e9f565
Entry 168:   0x3f7f4e9f566
Entry 169:   0x3f7f4e9f567
Entry 170:   0x3f7f4e9f568
Entry 171:   0xe8111cdc80
Entry 172:   0xe8111cdc82
Entry 173:   0xe8111cdc84
Entry 174:   0xe8111cdc86
Entry 175:   0xe8111cdc81
Entry 176:   0xe8111cdc83
Entry 177:   0xe8111cdc85
Entry 178:   0xe8111cdc87
Entry 179:   0xe8111cdc88
Entry 180:   0x3f7f4e9f569
Entry 181:   0xe8111cdc89
Entry 182:   0x3f7f4e9f56a
Entry 183:   0x3f7f4e9f56b
Entry 184:   0xe8111cdc8a
Entry 185:   0xe8111cdc8b
Entry 186:   0x3f7f4e9f56c
Entry 187:   0xe8111cdc8c
Entry 188:   0xe8111cdc8d
Entry 189:   0x3f7f4e9f56d
Entry 190:   0xe8111cdc8e
Entry 191:   0xe8111cdc8f
Entry 192:   0xe8111cdc90
Entry 193:   0xe8111cdc92
Entry 194:   0x3f7f4e9f56e
Entry 195:   0xe8111cdc93
Entry 196:   0xe8111cdc91
Entry 197:   0x3f7f4e9f56f
Entry 198:   0x3f7f4e9f570
Entry 199:   0xe8111cdc94
Entry 200:   0xe8111cdc95
Entry 201:   0x3f7f4e9f571
Entry 202:   0xe8111cdc96
Entry 203:   0xe8111cdc97
Entry 204:   0x3f7f4e9f572
Entry 205:   0xe8111cdc98
Entry 206:   0xe8111cdc99
Entry 207:   0x3f7f4e9f573
Entry 208:   0xe8111cdc9c
Entry 209:   0xe8111cdc9a
Entry 210:   0xe8111cdc9b
Entry 211:   0xe8111cdc9d
Entry 212:   0xe8111cdc9e
Entry 213:   0xe8111cdc9f
Entry 214:   0xe8111cdca0
Entry 215:   0x3f7f4e9f574
Entry 216:   0xe8111cdca1
Entry 217:   0x3f7f4e9f575
Entry 218:   0xe8111cdca2
Entry 219:   0xe8111cdca3
Entry 220:   0xe8111cdca4
Entry 221:   0x3f7f4e9f576
Entry 222:   0xe8111cdca6
Entry 223:   0xe8111cdca7
Entry 224:   0xe8111cdca5
Entry 225:   0x3f7f4e9f577
Entry 226:   0x3f7f4e9f578
Entry 227:   0xe8111cdca8
Entry 228:   0xe8111cdca9
Entry 229:   0x3f7f4e9f579
Entry 230:   0xe8111cdcaa
Entry 231:   0xe8111cdcab
Entry 232:   0x3f7f4e9f57a
Entry 233:   0xe8111cdcac
Entry 234:   0xe8111cdcad
Entry 235:   0xe8111cdcb0
Entry 236:   0xe8111cdcae
Entry 237:   0x3f7f4e9f57b
Entry 238:   0xe8111cdcb1
Entry 239:   0xe8111cdcaf
Entry 240:   0x3f7f4e9f57c
Entry 241:   0x3f7f4e9f57d
Entry 242:   0xe8111cdcb2
Entry 243:   0xe8111cdcb3
Entry 244:   0xe8111cdcb4
Entry 245:   0xe8111cdcb5
Entry 246:   0x3f7f4e9f57e
Entry 247:   0xe8111cdcb6
Entry 248:   0xe8111cdcb7
Entry 249:   0x3f7f4e9f57f
Entry 250:   0xe8111cdcb8
Entry 251:   0xe8111cdcb9
Entry 252:   0xe8111cdcba
Entry 253:   0xe8111cdcbb
Entry 254:   0xe8111cdcbc
Entry 255:   0xe8111cdcbd

DRAM Statistics
 CHANNEL 0
 RQ ROW_BUFFER_HIT:      95428  ROW_BUFFER_MISS:     343364
 DBUS_CONGESTED:     443669
 WQ ROW_BUFFER_HIT:     211579  ROW_BUFFER_MISS:     202873  FULL:      25229

 AVG_CONGESTED_CYCLE: 6

CPU 0 Branch Prediction Accuracy: 99.9749% MPKI: 0.0044 Average ROB Occupancy at Mispredict: 349.927

Branch types
NOT_BRANCH: 49121941 98.2439%
BRANCH_DIRECT_JUMP: 220 0.00044%
BRANCH_INDIRECT: 0 0%
BRANCH_CONDITIONAL: 877404 1.75481%
BRANCH_DIRECT_CALL: 220 0.00044%
BRANCH_INDIRECT_CALL: 0 0%
BRANCH_RETURN: 220 0.00044%
BRANCH_OTHER: 0 0%

