
*** ChampSim Multicore Out-of-Order Simulator ***

Warmup Instructions: 1000000
Simulation Instructions: 50000000
Number of CPUs: 1
LLC sets: 2048
LLC ways: 16
Off-chip DRAM Size: 4096 MB Channels: 1 Width: 64-bit Data Rate: 3200 MT/s

CPU 0 runs /home/carter/Documents/Homework/Carter-Owens-ECE-Workbook-Spring-2025/ECE-5750-Architecture/assignments/ChampSim/dpc3_traces/603.bwaves_s-3699B.champsimtrace.xz
CPU 0 L2C Best Offset prefetcher
Initialize SHIP state
Assign rand_sets[0]: 454  LLC: 2048
rand_sets[0]: 454
Assign rand_sets[1]: 1662  LLC: 2048
rand_sets[1]: 1662
Assign rand_sets[2]: 1921  LLC: 2048
rand_sets[2]: 1921
Assign rand_sets[3]: 1131  LLC: 2048
rand_sets[3]: 1131
Assign rand_sets[4]: 331  LLC: 2048
rand_sets[4]: 331
Assign rand_sets[5]: 1531  LLC: 2048
rand_sets[5]: 1531
Assign rand_sets[6]: 482  LLC: 2048
rand_sets[6]: 482
Assign rand_sets[7]: 1275  LLC: 2048
rand_sets[7]: 1275
Assign rand_sets[8]: 1876  LLC: 2048
rand_sets[8]: 1876
Assign rand_sets[9]: 2038  LLC: 2048
rand_sets[9]: 2038
Assign rand_sets[10]: 701  LLC: 2048
rand_sets[10]: 701
Assign rand_sets[11]: 479  LLC: 2048
rand_sets[11]: 479
Assign rand_sets[12]: 892  LLC: 2048
rand_sets[12]: 892
Assign rand_sets[13]: 1820  LLC: 2048
rand_sets[13]: 1820
Assign rand_sets[14]: 1505  LLC: 2048
rand_sets[14]: 1505
Assign rand_sets[15]: 1159  LLC: 2048
rand_sets[15]: 1159
Assign rand_sets[16]: 513  LLC: 2048
rand_sets[16]: 513
Assign rand_sets[17]: 703  LLC: 2048
rand_sets[17]: 703
Assign rand_sets[18]: 561  LLC: 2048
rand_sets[18]: 561
Assign rand_sets[19]: 990  LLC: 2048
rand_sets[19]: 990
Assign rand_sets[20]: 342  LLC: 2048
rand_sets[20]: 342
Assign rand_sets[21]: 882  LLC: 2048
rand_sets[21]: 882
Assign rand_sets[22]: 15  LLC: 2048
rand_sets[22]: 15
Assign rand_sets[23]: 71  LLC: 2048
rand_sets[23]: 71
Assign rand_sets[24]: 1127  LLC: 2048
rand_sets[24]: 1127
Assign rand_sets[25]: 1382  LLC: 2048
rand_sets[25]: 1382
Assign rand_sets[26]: 647  LLC: 2048
rand_sets[26]: 647
Assign rand_sets[27]: 857  LLC: 2048
rand_sets[27]: 857
Assign rand_sets[28]: 1450  LLC: 2048
rand_sets[28]: 1450
Assign rand_sets[29]: 1160  LLC: 2048
rand_sets[29]: 1160
Assign rand_sets[30]: 1852  LLC: 2048
rand_sets[30]: 1852
Assign rand_sets[31]: 1881  LLC: 2048
rand_sets[31]: 1881
Assign rand_sets[32]: 1770  LLC: 2048
rand_sets[32]: 1770
Assign rand_sets[33]: 1622  LLC: 2048
rand_sets[33]: 1622
Assign rand_sets[34]: 275  LLC: 2048
rand_sets[34]: 275
Assign rand_sets[35]: 635  LLC: 2048
rand_sets[35]: 635
Assign rand_sets[36]: 466  LLC: 2048
rand_sets[36]: 466
Assign rand_sets[37]: 1413  LLC: 2048
rand_sets[37]: 1413
Assign rand_sets[38]: 417  LLC: 2048
rand_sets[38]: 417
Assign rand_sets[39]: 472  LLC: 2048
rand_sets[39]: 472
Assign rand_sets[40]: 1340  LLC: 2048
rand_sets[40]: 1340
Assign rand_sets[41]: 852  LLC: 2048
rand_sets[41]: 852
Assign rand_sets[42]: 1365  LLC: 2048
rand_sets[42]: 1365
Assign rand_sets[43]: 47  LLC: 2048
rand_sets[43]: 47
Assign rand_sets[44]: 823  LLC: 2048
rand_sets[44]: 823
Assign rand_sets[45]: 686  LLC: 2048
rand_sets[45]: 686
Assign rand_sets[46]: 1637  LLC: 2048
rand_sets[46]: 1637
Assign rand_sets[47]: 1115  LLC: 2048
rand_sets[47]: 1115
Assign rand_sets[48]: 986  LLC: 2048
rand_sets[48]: 986
Assign rand_sets[49]: 258  LLC: 2048
rand_sets[49]: 258
Assign rand_sets[50]: 633  LLC: 2048
rand_sets[50]: 633
Assign rand_sets[51]: 920  LLC: 2048
rand_sets[51]: 920
Assign rand_sets[52]: 204  LLC: 2048
rand_sets[52]: 204
Assign rand_sets[53]: 227  LLC: 2048
rand_sets[53]: 227
Assign rand_sets[54]: 1818  LLC: 2048
rand_sets[54]: 1818
Assign rand_sets[55]: 886  LLC: 2048
rand_sets[55]: 886
Assign rand_sets[56]: 1422  LLC: 2048
rand_sets[56]: 1422
Assign rand_sets[57]: 607  LLC: 2048
rand_sets[57]: 607
Assign rand_sets[58]: 217  LLC: 2048
rand_sets[58]: 217
Assign rand_sets[59]: 1945  LLC: 2048
rand_sets[59]: 1945
Assign rand_sets[60]: 143  LLC: 2048
rand_sets[60]: 143
Assign rand_sets[61]: 1311  LLC: 2048
rand_sets[61]: 1311
Assign rand_sets[62]: 319  LLC: 2048
rand_sets[62]: 319
Assign rand_sets[63]: 1846  LLC: 2048
rand_sets[63]: 1846
Assign rand_sets[64]: 238  LLC: 2048
rand_sets[64]: 238
Assign rand_sets[65]: 67  LLC: 2048
rand_sets[65]: 67
Assign rand_sets[66]: 1912  LLC: 2048
rand_sets[66]: 1912
Assign rand_sets[67]: 1613  LLC: 2048
rand_sets[67]: 1613
Assign rand_sets[68]: 1293  LLC: 2048
rand_sets[68]: 1293
Assign rand_sets[69]: 1018  LLC: 2048
rand_sets[69]: 1018
Assign rand_sets[70]: 1982  LLC: 2048
rand_sets[70]: 1982
Assign rand_sets[71]: 1702  LLC: 2048
rand_sets[71]: 1702
Assign rand_sets[72]: 1498  LLC: 2048
rand_sets[72]: 1498
Assign rand_sets[73]: 228  LLC: 2048
rand_sets[73]: 228
Assign rand_sets[74]: 1414  LLC: 2048
rand_sets[74]: 1414
Assign rand_sets[75]: 1166  LLC: 2048
rand_sets[75]: 1166
Assign rand_sets[76]: 732  LLC: 2048
rand_sets[76]: 732
Assign rand_sets[77]: 297  LLC: 2048
rand_sets[77]: 297
Assign rand_sets[78]: 1133  LLC: 2048
rand_sets[78]: 1133
Assign rand_sets[79]: 846  LLC: 2048
rand_sets[79]: 846
Assign rand_sets[80]: 767  LLC: 2048
rand_sets[80]: 767
Assign rand_sets[81]: 1878  LLC: 2048
rand_sets[81]: 1878
Assign rand_sets[82]: 993  LLC: 2048
rand_sets[82]: 993
Assign rand_sets[83]: 1392  LLC: 2048
rand_sets[83]: 1392
Assign rand_sets[84]: 1568  LLC: 2048
rand_sets[84]: 1568
Assign rand_sets[85]: 1787  LLC: 2048
rand_sets[85]: 1787
Assign rand_sets[86]: 399  LLC: 2048
rand_sets[86]: 399
Assign rand_sets[87]: 1201  LLC: 2048
rand_sets[87]: 1201
Assign rand_sets[88]: 856  LLC: 2048
rand_sets[88]: 856
Assign rand_sets[89]: 773  LLC: 2048
rand_sets[89]: 773
Assign rand_sets[90]: 1680  LLC: 2048
rand_sets[90]: 1680
Assign rand_sets[91]: 1477  LLC: 2048
rand_sets[91]: 1477
Assign rand_sets[92]: 9  LLC: 2048
rand_sets[92]: 9
Assign rand_sets[93]: 1500  LLC: 2048
rand_sets[93]: 1500
Assign rand_sets[94]: 851  LLC: 2048
rand_sets[94]: 851
Assign rand_sets[95]: 973  LLC: 2048
rand_sets[95]: 973
Assign rand_sets[96]: 938  LLC: 2048
rand_sets[96]: 938
Assign rand_sets[97]: 1851  LLC: 2048
rand_sets[97]: 1851
Assign rand_sets[98]: 1608  LLC: 2048
rand_sets[98]: 1608
Assign rand_sets[99]: 1945  LLC: 2048
Assign rand_sets[99]: 1106  LLC: 2048
rand_sets[99]: 1106
Assign rand_sets[100]: 979  LLC: 2048
rand_sets[100]: 979
Assign rand_sets[101]: 338  LLC: 2048
rand_sets[101]: 338
Assign rand_sets[102]: 1693  LLC: 2048
rand_sets[102]: 1693
Assign rand_sets[103]: 6  LLC: 2048
rand_sets[103]: 6
Assign rand_sets[104]: 671  LLC: 2048
rand_sets[104]: 671
Assign rand_sets[105]: 490  LLC: 2048
rand_sets[105]: 490
Assign rand_sets[106]: 1461  LLC: 2048
rand_sets[106]: 1461
Assign rand_sets[107]: 1730  LLC: 2048
rand_sets[107]: 1730
Assign rand_sets[108]: 1030  LLC: 2048
rand_sets[108]: 1030
Assign rand_sets[109]: 19  LLC: 2048
rand_sets[109]: 19
Assign rand_sets[110]: 920  LLC: 2048
Assign rand_sets[110]: 329  LLC: 2048
rand_sets[110]: 329
Assign rand_sets[111]: 1714  LLC: 2048
rand_sets[111]: 1714
Assign rand_sets[112]: 1  LLC: 2048
rand_sets[112]: 1
Assign rand_sets[113]: 1822  LLC: 2048
rand_sets[113]: 1822
Assign rand_sets[114]: 172  LLC: 2048
rand_sets[114]: 172
Assign rand_sets[115]: 1586  LLC: 2048
rand_sets[115]: 1586
Assign rand_sets[116]: 648  LLC: 2048
rand_sets[116]: 648
Assign rand_sets[117]: 1329  LLC: 2048
rand_sets[117]: 1329
Assign rand_sets[118]: 668  LLC: 2048
rand_sets[118]: 668
Assign rand_sets[119]: 1874  LLC: 2048
rand_sets[119]: 1874
Assign rand_sets[120]: 70  LLC: 2048
rand_sets[120]: 70
Assign rand_sets[121]: 661  LLC: 2048
rand_sets[121]: 661
Assign rand_sets[122]: 1649  LLC: 2048
rand_sets[122]: 1649
Assign rand_sets[123]: 1590  LLC: 2048
rand_sets[123]: 1590
Assign rand_sets[124]: 911  LLC: 2048
rand_sets[124]: 911
Assign rand_sets[125]: 1367  LLC: 2048
rand_sets[125]: 1367
Assign rand_sets[126]: 1782  LLC: 2048
rand_sets[126]: 1782
Assign rand_sets[127]: 569  LLC: 2048
rand_sets[127]: 569
Assign rand_sets[128]: 1309  LLC: 2048
rand_sets[128]: 1309
Assign rand_sets[129]: 534  LLC: 2048
rand_sets[129]: 534
Assign rand_sets[130]: 1274  LLC: 2048
rand_sets[130]: 1274
Assign rand_sets[131]: 904  LLC: 2048
rand_sets[131]: 904
Assign rand_sets[132]: 1908  LLC: 2048
rand_sets[132]: 1908
Assign rand_sets[133]: 245  LLC: 2048
rand_sets[133]: 245
Assign rand_sets[134]: 1688  LLC: 2048
rand_sets[134]: 1688
Assign rand_sets[135]: 1660  LLC: 2048
rand_sets[135]: 1660
Assign rand_sets[136]: 1303  LLC: 2048
rand_sets[136]: 1303
Assign rand_sets[137]: 1628  LLC: 2048
rand_sets[137]: 1628
Assign rand_sets[138]: 1857  LLC: 2048
rand_sets[138]: 1857
Assign rand_sets[139]: 187  LLC: 2048
rand_sets[139]: 187
Assign rand_sets[140]: 1389  LLC: 2048
rand_sets[140]: 1389
Assign rand_sets[141]: 881  LLC: 2048
rand_sets[141]: 881
Assign rand_sets[142]: 1166  LLC: 2048
Assign rand_sets[142]: 1039  LLC: 2048
rand_sets[142]: 1039
Assign rand_sets[143]: 1136  LLC: 2048
rand_sets[143]: 1136
Assign rand_sets[144]: 601  LLC: 2048
rand_sets[144]: 601
Assign rand_sets[145]: 967  LLC: 2048
rand_sets[145]: 967
Assign rand_sets[146]: 769  LLC: 2048
rand_sets[146]: 769
Assign rand_sets[147]: 283  LLC: 2048
rand_sets[147]: 283
Assign rand_sets[148]: 559  LLC: 2048
rand_sets[148]: 559
Assign rand_sets[149]: 1075  LLC: 2048
rand_sets[149]: 1075
Assign rand_sets[150]: 829  LLC: 2048
rand_sets[150]: 829
Assign rand_sets[151]: 1681  LLC: 2048
rand_sets[151]: 1681
Assign rand_sets[152]: 1728  LLC: 2048
rand_sets[152]: 1728
Assign rand_sets[153]: 541  LLC: 2048
rand_sets[153]: 541
Assign rand_sets[154]: 421  LLC: 2048
rand_sets[154]: 421
Assign rand_sets[155]: 1037  LLC: 2048
rand_sets[155]: 1037
Assign rand_sets[156]: 13  LLC: 2048
rand_sets[156]: 13
Assign rand_sets[157]: 1707  LLC: 2048
rand_sets[157]: 1707
Assign rand_sets[158]: 1075  LLC: 2048
Assign rand_sets[158]: 1933  LLC: 2048
rand_sets[158]: 1933
Assign rand_sets[159]: 1406  LLC: 2048
rand_sets[159]: 1406
Assign rand_sets[160]: 94  LLC: 2048
rand_sets[160]: 94
Assign rand_sets[161]: 1423  LLC: 2048
rand_sets[161]: 1423
Assign rand_sets[162]: 1854  LLC: 2048
rand_sets[162]: 1854
Assign rand_sets[163]: 230  LLC: 2048
rand_sets[163]: 230
Assign rand_sets[164]: 104  LLC: 2048
rand_sets[164]: 104
Assign rand_sets[165]: 1652  LLC: 2048
rand_sets[165]: 1652
Assign rand_sets[166]: 1446  LLC: 2048
rand_sets[166]: 1446
Assign rand_sets[167]: 1338  LLC: 2048
rand_sets[167]: 1338
Assign rand_sets[168]: 177  LLC: 2048
rand_sets[168]: 177
Assign rand_sets[169]: 195  LLC: 2048
rand_sets[169]: 195
Assign rand_sets[170]: 1171  LLC: 2048
rand_sets[170]: 1171
Assign rand_sets[171]: 1297  LLC: 2048
rand_sets[171]: 1297
Assign rand_sets[172]: 1704  LLC: 2048
rand_sets[172]: 1704
Assign rand_sets[173]: 100  LLC: 2048
rand_sets[173]: 100
Assign rand_sets[174]: 711  LLC: 2048
rand_sets[174]: 711
Assign rand_sets[175]: 1243  LLC: 2048
rand_sets[175]: 1243
Assign rand_sets[176]: 1738  LLC: 2048
rand_sets[176]: 1738
Assign rand_sets[177]: 1504  LLC: 2048
rand_sets[177]: 1504
Assign rand_sets[178]: 96  LLC: 2048
rand_sets[178]: 96
Assign rand_sets[179]: 1249  LLC: 2048
rand_sets[179]: 1249
Assign rand_sets[180]: 1267  LLC: 2048
rand_sets[180]: 1267
Assign rand_sets[181]: 1727  LLC: 2048
rand_sets[181]: 1727
Assign rand_sets[182]: 1545  LLC: 2048
rand_sets[182]: 1545
Assign rand_sets[183]: 1792  LLC: 2048
rand_sets[183]: 1792
Assign rand_sets[184]: 1383  LLC: 2048
rand_sets[184]: 1383
Assign rand_sets[185]: 1954  LLC: 2048
rand_sets[185]: 1954
Assign rand_sets[186]: 739  LLC: 2048
rand_sets[186]: 739
Assign rand_sets[187]: 1061  LLC: 2048
rand_sets[187]: 1061
Assign rand_sets[188]: 672  LLC: 2048
rand_sets[188]: 672
Assign rand_sets[189]: 1057  LLC: 2048
rand_sets[189]: 1057
Assign rand_sets[190]: 1329  LLC: 2048
Assign rand_sets[190]: 1415  LLC: 2048
rand_sets[190]: 1415
Assign rand_sets[191]: 981  LLC: 2048
rand_sets[191]: 981
Assign rand_sets[192]: 98  LLC: 2048
rand_sets[192]: 98
Assign rand_sets[193]: 453  LLC: 2048
rand_sets[193]: 453
Assign rand_sets[194]: 1448  LLC: 2048
rand_sets[194]: 1448
Assign rand_sets[195]: 79  LLC: 2048
rand_sets[195]: 79
Assign rand_sets[196]: 126  LLC: 2048
rand_sets[196]: 126
Assign rand_sets[197]: 1582  LLC: 2048
rand_sets[197]: 1582
Assign rand_sets[198]: 1289  LLC: 2048
rand_sets[198]: 1289
Assign rand_sets[199]: 875  LLC: 2048
rand_sets[199]: 875
Assign rand_sets[200]: 404  LLC: 2048
rand_sets[200]: 404
Assign rand_sets[201]: 415  LLC: 2048
rand_sets[201]: 415
Assign rand_sets[202]: 1712  LLC: 2048
rand_sets[202]: 1712
Assign rand_sets[203]: 1389  LLC: 2048
Assign rand_sets[203]: 169  LLC: 2048
rand_sets[203]: 169
Assign rand_sets[204]: 158  LLC: 2048
rand_sets[204]: 158
Assign rand_sets[205]: 90  LLC: 2048
rand_sets[205]: 90
Assign rand_sets[206]: 1291  LLC: 2048
rand_sets[206]: 1291
Assign rand_sets[207]: 838  LLC: 2048
rand_sets[207]: 838
Assign rand_sets[208]: 1904  LLC: 2048
rand_sets[208]: 1904
Assign rand_sets[209]: 640  LLC: 2048
rand_sets[209]: 640
Assign rand_sets[210]: 1462  LLC: 2048
rand_sets[210]: 1462
Assign rand_sets[211]: 1487  LLC: 2048
rand_sets[211]: 1487
Assign rand_sets[212]: 1863  LLC: 2048
rand_sets[212]: 1863
Assign rand_sets[213]: 1036  LLC: 2048
rand_sets[213]: 1036
Assign rand_sets[214]: 1702  LLC: 2048
Assign rand_sets[214]: 933  LLC: 2048
rand_sets[214]: 933
Assign rand_sets[215]: 554  LLC: 2048
rand_sets[215]: 554
Assign rand_sets[216]: 1496  LLC: 2048
rand_sets[216]: 1496
Assign rand_sets[217]: 1708  LLC: 2048
rand_sets[217]: 1708
Assign rand_sets[218]: 1275  LLC: 2048
Assign rand_sets[218]: 416  LLC: 2048
rand_sets[218]: 416
Assign rand_sets[219]: 491  LLC: 2048
rand_sets[219]: 491
Assign rand_sets[220]: 183  LLC: 2048
rand_sets[220]: 183
Assign rand_sets[221]: 1657  LLC: 2048
rand_sets[221]: 1657
Assign rand_sets[222]: 1060  LLC: 2048
rand_sets[222]: 1060
Assign rand_sets[223]: 626  LLC: 2048
rand_sets[223]: 626
Assign rand_sets[224]: 1315  LLC: 2048
rand_sets[224]: 1315
Assign rand_sets[225]: 1682  LLC: 2048
rand_sets[225]: 1682
Assign rand_sets[226]: 1352  LLC: 2048
rand_sets[226]: 1352
Assign rand_sets[227]: 1152  LLC: 2048
rand_sets[227]: 1152
Assign rand_sets[228]: 965  LLC: 2048
rand_sets[228]: 965
Assign rand_sets[229]: 1190  LLC: 2048
rand_sets[229]: 1190
Assign rand_sets[230]: 1191  LLC: 2048
rand_sets[230]: 1191
Assign rand_sets[231]: 645  LLC: 2048
rand_sets[231]: 645
Assign rand_sets[232]: 695  LLC: 2048
rand_sets[232]: 695
Assign rand_sets[233]: 1495  LLC: 2048
rand_sets[233]: 1495
Assign rand_sets[234]: 1932  LLC: 2048
rand_sets[234]: 1932
Assign rand_sets[235]: 656  LLC: 2048
rand_sets[235]: 656
Assign rand_sets[236]: 1508  LLC: 2048
rand_sets[236]: 1508
Assign rand_sets[237]: 939  LLC: 2048
rand_sets[237]: 939
Assign rand_sets[238]: 355  LLC: 2048
rand_sets[238]: 355
Assign rand_sets[239]: 1092  LLC: 2048
rand_sets[239]: 1092
Assign rand_sets[240]: 850  LLC: 2048
rand_sets[240]: 850
Assign rand_sets[241]: 102  LLC: 2048
rand_sets[241]: 102
Assign rand_sets[242]: 1763  LLC: 2048
rand_sets[242]: 1763
Assign rand_sets[243]: 668  LLC: 2048
Assign rand_sets[243]: 51  LLC: 2048
rand_sets[243]: 51
Assign rand_sets[244]: 1317  LLC: 2048
rand_sets[244]: 1317
Assign rand_sets[245]: 2041  LLC: 2048
rand_sets[245]: 2041
Assign rand_sets[246]: 1374  LLC: 2048
rand_sets[246]: 1374
Assign rand_sets[247]: 682  LLC: 2048
rand_sets[247]: 682
Assign rand_sets[248]: 1466  LLC: 2048
rand_sets[248]: 1466
Assign rand_sets[249]: 1139  LLC: 2048
rand_sets[249]: 1139
Assign rand_sets[250]: 1632  LLC: 2048
rand_sets[250]: 1632
Assign rand_sets[251]: 1117  LLC: 2048
rand_sets[251]: 1117
Assign rand_sets[252]: 1611  LLC: 2048
rand_sets[252]: 1611
Assign rand_sets[253]: 1905  LLC: 2048
rand_sets[253]: 1905
Assign rand_sets[254]: 1662  LLC: 2048
Assign rand_sets[254]: 446  LLC: 2048
rand_sets[254]: 446
Assign rand_sets[255]: 1705  LLC: 2048
rand_sets[255]: 1705

Warmup complete CPU 0 instructions: 1000003 cycles: 342223 (Simulation time: 0 hr 0 min 1 sec) 

Heartbeat CPU 0 instructions: 10000001 cycles: 5026266 heartbeat IPC: 1.98955 cumulative IPC: 1.92142 (Simulation time: 0 hr 0 min 7 sec) 
Heartbeat CPU 0 instructions: 20000003 cycles: 10211819 heartbeat IPC: 1.92843 cumulative IPC: 1.9251 (Simulation time: 0 hr 0 min 15 sec) 
Heartbeat CPU 0 instructions: 30000003 cycles: 15517398 heartbeat IPC: 1.88481 cumulative IPC: 1.91102 (Simulation time: 0 hr 0 min 23 sec) 
Heartbeat CPU 0 instructions: 40000003 cycles: 20710052 heartbeat IPC: 1.9258 cumulative IPC: 1.91478 (Simulation time: 0 hr 0 min 30 sec) 
Heartbeat CPU 0 instructions: 50000000 cycles: 25896430 heartbeat IPC: 1.92813 cumulative IPC: 1.91749 (Simulation time: 0 hr 0 min 36 sec) 
Finished CPU 0 instructions: 50000000 cycles: 26069977 cumulative IPC: 1.91792 (Simulation time: 0 hr 0 min 37 sec) 

ChampSim completed all CPUs

Region of Interest Statistics

CPU 0 cumulative IPC: 1.91792 instructions: 50000000 cycles: 26069977
L1D TOTAL     ACCESS:    8029941  HIT:    7974690  MISS:      55251
L1D LOAD      ACCESS:    5984943  HIT:    5975229  MISS:       9714
L1D RFO       ACCESS:    2044998  HIT:    1999461  MISS:      45537
L1D PREFETCH  ACCESS:          0  HIT:          0  MISS:          0
L1D WRITEBACK ACCESS:          0  HIT:          0  MISS:          0
L1D PREFETCH  REQUESTED:          0  ISSUED:          0  USEFUL:          0  USELESS:          0
L1D AVERAGE MISS LATENCY: 146.835 cycles
L1I TOTAL     ACCESS:   12815878  HIT:   12815861  MISS:         17
L1I LOAD      ACCESS:   12815878  HIT:   12815861  MISS:         17
L1I RFO       ACCESS:          0  HIT:          0  MISS:          0
L1I PREFETCH  ACCESS:          0  HIT:          0  MISS:          0
L1I WRITEBACK ACCESS:          0  HIT:          0  MISS:          0
L1I PREFETCH  REQUESTED:          0  ISSUED:          0  USEFUL:          0  USELESS:          0
L1I AVERAGE MISS LATENCY: 94.6471 cycles
L2C TOTAL     ACCESS:     137403  HIT:      82953  MISS:      54450
L2C LOAD      ACCESS:       9731  HIT:       9557  MISS:        174
L2C RFO       ACCESS:      45537  HIT:        261  MISS:      45276
L2C PREFETCH  ACCESS:      36825  HIT:      27825  MISS:       9000
L2C WRITEBACK ACCESS:      45310  HIT:      45310  MISS:          0
L2C PREFETCH  REQUESTED:      37514  ISSUED:      37496  USEFUL:       8923  USELESS:        197
L2C AVERAGE MISS LATENCY: 163.83 cycles
LLC TOTAL     ACCESS:      96450  HIT:      30206  MISS:      66244
LLC LOAD      ACCESS:        173  HIT:          0  MISS:        173
LLC RFO       ACCESS:      45276  HIT:          0  MISS:      45276
LLC PREFETCH  ACCESS:       9001  HIT:          4  MISS:       8997
LLC WRITEBACK ACCESS:      42000  HIT:      30202  MISS:      11798
LLC PREFETCH  REQUESTED:          0  ISSUED:          0  USEFUL:          0  USELESS:       5944
LLC AVERAGE MISS LATENCY: 109.4 cycles
Major fault: 0 Minor fault: 879
CPU 0 L2C BOP prefetcher final stats
bop_end_phase_max_round 0
bop_end_phase_max_score 294
bop_total_phases 294
bop_fill_called 55027
bop_fill_insert_rr 55027
bop_insert_rr_hit 0
bop_insert_rr_evict 54771
bop_insert_rr_insert 55027
bop_pref_buffer_buffered 0
bop_pref_buffer_spilled 0
bop_pref_buffer_issued 0
bop_pref_issued 38498

Entry 0:   0x286af6014f4
Entry 1:   0x286af6013e6
Entry 2:   0x286af6014b5
Entry 3:   0x286af601331
Entry 4:   0x286af6014b7
Entry 5:   0x286af6014f5
Entry 6:   0x286af6014f7
Entry 7:   0x286af6014b6
Entry 8:   0x286af6014f6
Entry 9:   0x286af6013e7
Entry 10:   0x286af6014b8
Entry 11:   0x286af6014b9
Entry 12:   0x286af6014ba
Entry 13:   0x286af6014f8
Entry 14:   0x286af6014f9
Entry 15:   0x286af6014fa
Entry 16:   0x286af6014bb
Entry 17:   0x286af6014bc
Entry 18:   0x286af6014bd
Entry 19:   0x286af6014fb
Entry 20:   0x286af601332
Entry 21:   0x286af6014fc
Entry 22:   0x286af6014fd
Entry 23:   0x286af6013e8
Entry 24:   0x286af6014be
Entry 25:   0x286af6014bf
Entry 26:   0x286af601500
Entry 27:   0x286af6014fe
Entry 28:   0x286af6014ff
Entry 29:   0x286af6013e9
Entry 30:   0x286af601540
Entry 31:   0x286af601501
Entry 32:   0x286af601502
Entry 33:   0x286af601333
Entry 34:   0x286af601504
Entry 35:   0x286af601541
Entry 36:   0x286af601503
Entry 37:   0x286af601542
Entry 38:   0x286af601544
Entry 39:   0x286af601543
Entry 40:   0x286af601505
Entry 41:   0x286af601506
Entry 42:   0x286af601507
Entry 43:   0x286af601334
Entry 44:   0x286af601545
Entry 45:   0x286af6013ea
Entry 46:   0x286af601546
Entry 47:   0x286af601547
Entry 48:   0x286af601508
Entry 49:   0x286af601509
Entry 50:   0x286af60150a
Entry 51:   0x286af601548
Entry 52:   0x286af601549
Entry 53:   0x286af60154a
Entry 54:   0x286af60150b
Entry 55:   0x286af60150c
Entry 56:   0x286af601335
Entry 57:   0x286af60150d
Entry 58:   0x286af60154b
Entry 59:   0x286af60154c
Entry 60:   0x286af60150e
Entry 61:   0x286af60150f
Entry 62:   0x286af60154d
Entry 63:   0x286af601510
Entry 64:   0x286af6013eb
Entry 65:   0x286af601336
Entry 66:   0x286af6013ec
Entry 67:   0x286af60154f
Entry 68:   0x286af601550
Entry 69:   0x286af601511
Entry 70:   0x286af601512
Entry 71:   0x286af601551
Entry 72:   0x286af601513
Entry 73:   0x286af60154e
Entry 74:   0x286af601553
Entry 75:   0x286af601552
Entry 76:   0x286af601514
Entry 77:   0x286af601515
Entry 78:   0x286af601516
Entry 79:   0x286af601337
Entry 80:   0x286af601554
Entry 81:   0x286af601556
Entry 82:   0x286af601555
Entry 83:   0x286af601517
Entry 84:   0x286af601518
Entry 85:   0x286af601519
Entry 86:   0x286af601557
Entry 87:   0x286af601558
Entry 88:   0x286af601559
Entry 89:   0x286af6013ed
Entry 90:   0x286af6013ee
Entry 91:   0x286af60151a
Entry 92:   0x286af60151b
Entry 93:   0x286af60151c
Entry 94:   0x286af601338
Entry 95:   0x286af60151d
Entry 96:   0x286af60155a
Entry 97:   0x286af60155b
Entry 98:   0x286af60155c
Entry 99:   0x286af60155d
Entry 100:   0x286af60151e
Entry 101:   0x286af60151f
Entry 102:   0x286af601339
Entry 103:   0x286af601520
Entry 104:   0x286af60155e
Entry 105:   0x286af60155f
Entry 106:   0x286af601560
Entry 107:   0x286af601521
Entry 108:   0x286af601522
Entry 109:   0x286af601523
Entry 110:   0x286af6013ef
Entry 111:   0x286af601561
Entry 112:   0x286af601562
Entry 113:   0x286af601563
Entry 114:   0x286af601524
Entry 115:   0x286af601525
Entry 116:   0x286af60133a
Entry 117:   0x286af601526
Entry 118:   0x286af601564
Entry 119:   0x286af601565
Entry 120:   0x286af601566
Entry 121:   0x286af6013f0
Entry 122:   0x286af601527
Entry 123:   0x286af60133b
Entry 124:   0x286af601529
Entry 125:   0x286af601567
Entry 126:   0x286af601569
Entry 127:   0x286af601528
Entry 128:   0x286af601568
Entry 129:   0x286af6013f1
Entry 130:   0x286af60152a
Entry 131:   0x286af60152b
Entry 132:   0x286af60152c
Entry 133:   0x286af60156a
Entry 134:   0x286af60156b
Entry 135:   0x286af60156c
Entry 136:   0x286af60152d
Entry 137:   0x286af60152e
Entry 138:   0x286af60133c
Entry 139:   0x286af60152f
Entry 140:   0x286af60156d
Entry 141:   0x286af6013f2
Entry 142:   0x286af60156e
Entry 143:   0x286af60156f
Entry 144:   0x286af601530
Entry 145:   0x286af601531
Entry 146:   0x286af601532
Entry 147:   0x286af601570
Entry 148:   0x286af6013f3
Entry 149:   0x286af601571
Entry 150:   0x286af601572
Entry 151:   0x286af601533
Entry 152:   0x286af601534
Entry 153:   0x286af60133d
Entry 154:   0x286af601536
Entry 155:   0x286af601573
Entry 156:   0x286af601574
Entry 157:   0x286af601535
Entry 158:   0x286af601576
Entry 159:   0x286af601575
Entry 160:   0x286af601537
Entry 161:   0x286af601538
Entry 162:   0x286af601539
Entry 163:   0x286af60133e
Entry 164:   0x286af6013f4
Entry 165:   0x286af601577
Entry 166:   0x286af601578
Entry 167:   0x286af601579
Entry 168:   0x286af60153a
Entry 169:   0x286af60153b
Entry 170:   0x286af60153c
Entry 171:   0x286af60157a
Entry 172:   0x286af60157b
Entry 173:   0x286af60157c
Entry 174:   0x286af60153d
Entry 175:   0x286af60153e
Entry 176:   0x286af60153f
Entry 177:   0x286af60133f
Entry 178:   0x286af60157e
Entry 179:   0x286af6013f5
Entry 180:   0x286af60157f
Entry 181:   0x286af60157d
Entry 182:   0x286af601582
Entry 183:   0x286af601580
Entry 184:   0x286af601581
Entry 185:   0x286af6015c0
Entry 186:   0x286af6015c1
Entry 187:   0x286af6015c2
Entry 188:   0x286af6013f6
Entry 189:   0x286af601583
Entry 190:   0x286af601584
Entry 191:   0x286af601585
Entry 192:   0x286af6015c3
Entry 193:   0x286af6015c4
Entry 194:   0x286af6015c5
Entry 195:   0x286af601586
Entry 196:   0x286af601587
Entry 197:   0x286af601588
Entry 198:   0x286af6015c6
Entry 199:   0x286af6015c7
Entry 200:   0x286af6015c8
Entry 201:   0x286af6013f7
Entry 202:   0x286af601589
Entry 203:   0x286af60158a
Entry 204:   0x286af60158b
Entry 205:   0x286af6015c9
Entry 206:   0x286af6015ca
Entry 207:   0x286af6013f8
Entry 208:   0x286af6015cb
Entry 209:   0x286af60158c
Entry 210:   0x286af60158d
Entry 211:   0x286af60158e
Entry 212:   0x286af60158f
Entry 213:   0x286af6015cc
Entry 214:   0x286af6015cd
Entry 215:   0x286af6015ce
Entry 216:   0x286af6015cf
Entry 217:   0x286af601590
Entry 218:   0x286af601591
Entry 219:   0x286af601592
Entry 220:   0x286af6013f9
Entry 221:   0x286af6015d0
Entry 222:   0x286af6015d2
Entry 223:   0x286af601593
Entry 224:   0x286af601594
Entry 225:   0x286af601595
Entry 226:   0x286af6015d1
Entry 227:   0x286af6015d3
Entry 228:   0x286af6015d4
Entry 229:   0x286af6015d5
Entry 230:   0x286af601596
Entry 231:   0x286af601600
Entry 232:   0x286af601597
Entry 233:   0x286af601601
Entry 234:   0x286af601602
Entry 235:   0x286af601603
Entry 236:   0x286af601604
Entry 237:   0x286af601598
Entry 238:   0x286af6013fa
Entry 239:   0x286af6015d6
Entry 240:   0x286af6015d7
Entry 241:   0x286af6015d8
Entry 242:   0x286af601599
Entry 243:   0x286af60159b
Entry 244:   0x286af60159a
Entry 245:   0x286af601605
Entry 246:   0x286af6015d9
Entry 247:   0x286af6013fb
Entry 248:   0x286af6015da
Entry 249:   0x286af60159c
Entry 250:   0x286af60159d
Entry 251:   0x286af6015db
Entry 252:   0x286af60159e
Entry 253:   0x286af6015dc
Entry 254:   0x286af6015dd
Entry 255:   0x286af6015de

DRAM Statistics
 CHANNEL 0
 RQ ROW_BUFFER_HIT:      29880  ROW_BUFFER_MISS:      24566
 DBUS_CONGESTED:      17670
 WQ ROW_BUFFER_HIT:       7988  ROW_BUFFER_MISS:       5601  FULL:          0

 AVG_CONGESTED_CYCLE: 6

CPU 0 Branch Prediction Accuracy: 92.2032% MPKI: 10.7068 Average ROB Occupancy at Mispredict: 43.359

Branch types
NOT_BRANCH: 43133558 86.2671%
BRANCH_DIRECT_JUMP: 502360 1.00472%
BRANCH_INDIRECT: 38311 0.076622%
BRANCH_CONDITIONAL: 6144655 12.2893%
BRANCH_DIRECT_CALL: 90409 0.180818%
BRANCH_INDIRECT_CALL: 0 0%
BRANCH_RETURN: 90407 0.180814%
BRANCH_OTHER: 0 0%

