
*** ChampSim Multicore Out-of-Order Simulator ***

Warmup Instructions: 1000000
Simulation Instructions: 50000000
Number of CPUs: 1
LLC sets: 2048
LLC ways: 16
Off-chip DRAM Size: 4096 MB Channels: 1 Width: 64-bit Data Rate: 3200 MT/s

CPU 0 runs /home/carter/Documents/Homework/Carter-Owens-ECE-Workbook-Spring-2025/ECE-5750-Architecture/assignments/ChampSim/dpc3_traces/605.mcf_s-665B.champsimtrace.xz
CPU 0 L2C Best Offset prefetcher
Initialize SHIP state
Assign rand_sets[0]: 454  LLC: 2048
rand_sets[0]: 454
Assign rand_sets[1]: 1662  LLC: 2048
rand_sets[1]: 1662
Assign rand_sets[2]: 1921  LLC: 2048
rand_sets[2]: 1921
Assign rand_sets[3]: 1131  LLC: 2048
rand_sets[3]: 1131
Assign rand_sets[4]: 331  LLC: 2048
rand_sets[4]: 331
Assign rand_sets[5]: 1531  LLC: 2048
rand_sets[5]: 1531
Assign rand_sets[6]: 482  LLC: 2048
rand_sets[6]: 482
Assign rand_sets[7]: 1275  LLC: 2048
rand_sets[7]: 1275
Assign rand_sets[8]: 1876  LLC: 2048
rand_sets[8]: 1876
Assign rand_sets[9]: 2038  LLC: 2048
rand_sets[9]: 2038
Assign rand_sets[10]: 701  LLC: 2048
rand_sets[10]: 701
Assign rand_sets[11]: 479  LLC: 2048
rand_sets[11]: 479
Assign rand_sets[12]: 892  LLC: 2048
rand_sets[12]: 892
Assign rand_sets[13]: 1820  LLC: 2048
rand_sets[13]: 1820
Assign rand_sets[14]: 1505  LLC: 2048
rand_sets[14]: 1505
Assign rand_sets[15]: 1159  LLC: 2048
rand_sets[15]: 1159
Assign rand_sets[16]: 513  LLC: 2048
rand_sets[16]: 513
Assign rand_sets[17]: 703  LLC: 2048
rand_sets[17]: 703
Assign rand_sets[18]: 561  LLC: 2048
rand_sets[18]: 561
Assign rand_sets[19]: 990  LLC: 2048
rand_sets[19]: 990
Assign rand_sets[20]: 342  LLC: 2048
rand_sets[20]: 342
Assign rand_sets[21]: 882  LLC: 2048
rand_sets[21]: 882
Assign rand_sets[22]: 15  LLC: 2048
rand_sets[22]: 15
Assign rand_sets[23]: 71  LLC: 2048
rand_sets[23]: 71
Assign rand_sets[24]: 1127  LLC: 2048
rand_sets[24]: 1127
Assign rand_sets[25]: 1382  LLC: 2048
rand_sets[25]: 1382
Assign rand_sets[26]: 647  LLC: 2048
rand_sets[26]: 647
Assign rand_sets[27]: 857  LLC: 2048
rand_sets[27]: 857
Assign rand_sets[28]: 1450  LLC: 2048
rand_sets[28]: 1450
Assign rand_sets[29]: 1160  LLC: 2048
rand_sets[29]: 1160
Assign rand_sets[30]: 1852  LLC: 2048
rand_sets[30]: 1852
Assign rand_sets[31]: 1881  LLC: 2048
rand_sets[31]: 1881
Assign rand_sets[32]: 1770  LLC: 2048
rand_sets[32]: 1770
Assign rand_sets[33]: 1622  LLC: 2048
rand_sets[33]: 1622
Assign rand_sets[34]: 275  LLC: 2048
rand_sets[34]: 275
Assign rand_sets[35]: 635  LLC: 2048
rand_sets[35]: 635
Assign rand_sets[36]: 466  LLC: 2048
rand_sets[36]: 466
Assign rand_sets[37]: 1413  LLC: 2048
rand_sets[37]: 1413
Assign rand_sets[38]: 417  LLC: 2048
rand_sets[38]: 417
Assign rand_sets[39]: 472  LLC: 2048
rand_sets[39]: 472
Assign rand_sets[40]: 1340  LLC: 2048
rand_sets[40]: 1340
Assign rand_sets[41]: 852  LLC: 2048
rand_sets[41]: 852
Assign rand_sets[42]: 1365  LLC: 2048
rand_sets[42]: 1365
Assign rand_sets[43]: 47  LLC: 2048
rand_sets[43]: 47
Assign rand_sets[44]: 823  LLC: 2048
rand_sets[44]: 823
Assign rand_sets[45]: 686  LLC: 2048
rand_sets[45]: 686
Assign rand_sets[46]: 1637  LLC: 2048
rand_sets[46]: 1637
Assign rand_sets[47]: 1115  LLC: 2048
rand_sets[47]: 1115
Assign rand_sets[48]: 986  LLC: 2048
rand_sets[48]: 986
Assign rand_sets[49]: 258  LLC: 2048
rand_sets[49]: 258
Assign rand_sets[50]: 633  LLC: 2048
rand_sets[50]: 633
Assign rand_sets[51]: 920  LLC: 2048
rand_sets[51]: 920
Assign rand_sets[52]: 204  LLC: 2048
rand_sets[52]: 204
Assign rand_sets[53]: 227  LLC: 2048
rand_sets[53]: 227
Assign rand_sets[54]: 1818  LLC: 2048
rand_sets[54]: 1818
Assign rand_sets[55]: 886  LLC: 2048
rand_sets[55]: 886
Assign rand_sets[56]: 1422  LLC: 2048
rand_sets[56]: 1422
Assign rand_sets[57]: 607  LLC: 2048
rand_sets[57]: 607
Assign rand_sets[58]: 217  LLC: 2048
rand_sets[58]: 217
Assign rand_sets[59]: 1945  LLC: 2048
rand_sets[59]: 1945
Assign rand_sets[60]: 143  LLC: 2048
rand_sets[60]: 143
Assign rand_sets[61]: 1311  LLC: 2048
rand_sets[61]: 1311
Assign rand_sets[62]: 319  LLC: 2048
rand_sets[62]: 319
Assign rand_sets[63]: 1846  LLC: 2048
rand_sets[63]: 1846
Assign rand_sets[64]: 238  LLC: 2048
rand_sets[64]: 238
Assign rand_sets[65]: 67  LLC: 2048
rand_sets[65]: 67
Assign rand_sets[66]: 1912  LLC: 2048
rand_sets[66]: 1912
Assign rand_sets[67]: 1613  LLC: 2048
rand_sets[67]: 1613
Assign rand_sets[68]: 1293  LLC: 2048
rand_sets[68]: 1293
Assign rand_sets[69]: 1018  LLC: 2048
rand_sets[69]: 1018
Assign rand_sets[70]: 1982  LLC: 2048
rand_sets[70]: 1982
Assign rand_sets[71]: 1702  LLC: 2048
rand_sets[71]: 1702
Assign rand_sets[72]: 1498  LLC: 2048
rand_sets[72]: 1498
Assign rand_sets[73]: 228  LLC: 2048
rand_sets[73]: 228
Assign rand_sets[74]: 1414  LLC: 2048
rand_sets[74]: 1414
Assign rand_sets[75]: 1166  LLC: 2048
rand_sets[75]: 1166
Assign rand_sets[76]: 732  LLC: 2048
rand_sets[76]: 732
Assign rand_sets[77]: 297  LLC: 2048
rand_sets[77]: 297
Assign rand_sets[78]: 1133  LLC: 2048
rand_sets[78]: 1133
Assign rand_sets[79]: 846  LLC: 2048
rand_sets[79]: 846
Assign rand_sets[80]: 767  LLC: 2048
rand_sets[80]: 767
Assign rand_sets[81]: 1878  LLC: 2048
rand_sets[81]: 1878
Assign rand_sets[82]: 993  LLC: 2048
rand_sets[82]: 993
Assign rand_sets[83]: 1392  LLC: 2048
rand_sets[83]: 1392
Assign rand_sets[84]: 1568  LLC: 2048
rand_sets[84]: 1568
Assign rand_sets[85]: 1787  LLC: 2048
rand_sets[85]: 1787
Assign rand_sets[86]: 399  LLC: 2048
rand_sets[86]: 399
Assign rand_sets[87]: 1201  LLC: 2048
rand_sets[87]: 1201
Assign rand_sets[88]: 856  LLC: 2048
rand_sets[88]: 856
Assign rand_sets[89]: 773  LLC: 2048
rand_sets[89]: 773
Assign rand_sets[90]: 1680  LLC: 2048
rand_sets[90]: 1680
Assign rand_sets[91]: 1477  LLC: 2048
rand_sets[91]: 1477
Assign rand_sets[92]: 9  LLC: 2048
rand_sets[92]: 9
Assign rand_sets[93]: 1500  LLC: 2048
rand_sets[93]: 1500
Assign rand_sets[94]: 851  LLC: 2048
rand_sets[94]: 851
Assign rand_sets[95]: 973  LLC: 2048
rand_sets[95]: 973
Assign rand_sets[96]: 938  LLC: 2048
rand_sets[96]: 938
Assign rand_sets[97]: 1851  LLC: 2048
rand_sets[97]: 1851
Assign rand_sets[98]: 1608  LLC: 2048
rand_sets[98]: 1608
Assign rand_sets[99]: 1945  LLC: 2048
Assign rand_sets[99]: 1106  LLC: 2048
rand_sets[99]: 1106
Assign rand_sets[100]: 979  LLC: 2048
rand_sets[100]: 979
Assign rand_sets[101]: 338  LLC: 2048
rand_sets[101]: 338
Assign rand_sets[102]: 1693  LLC: 2048
rand_sets[102]: 1693
Assign rand_sets[103]: 6  LLC: 2048
rand_sets[103]: 6
Assign rand_sets[104]: 671  LLC: 2048
rand_sets[104]: 671
Assign rand_sets[105]: 490  LLC: 2048
rand_sets[105]: 490
Assign rand_sets[106]: 1461  LLC: 2048
rand_sets[106]: 1461
Assign rand_sets[107]: 1730  LLC: 2048
rand_sets[107]: 1730
Assign rand_sets[108]: 1030  LLC: 2048
rand_sets[108]: 1030
Assign rand_sets[109]: 19  LLC: 2048
rand_sets[109]: 19
Assign rand_sets[110]: 920  LLC: 2048
Assign rand_sets[110]: 329  LLC: 2048
rand_sets[110]: 329
Assign rand_sets[111]: 1714  LLC: 2048
rand_sets[111]: 1714
Assign rand_sets[112]: 1  LLC: 2048
rand_sets[112]: 1
Assign rand_sets[113]: 1822  LLC: 2048
rand_sets[113]: 1822
Assign rand_sets[114]: 172  LLC: 2048
rand_sets[114]: 172
Assign rand_sets[115]: 1586  LLC: 2048
rand_sets[115]: 1586
Assign rand_sets[116]: 648  LLC: 2048
rand_sets[116]: 648
Assign rand_sets[117]: 1329  LLC: 2048
rand_sets[117]: 1329
Assign rand_sets[118]: 668  LLC: 2048
rand_sets[118]: 668
Assign rand_sets[119]: 1874  LLC: 2048
rand_sets[119]: 1874
Assign rand_sets[120]: 70  LLC: 2048
rand_sets[120]: 70
Assign rand_sets[121]: 661  LLC: 2048
rand_sets[121]: 661
Assign rand_sets[122]: 1649  LLC: 2048
rand_sets[122]: 1649
Assign rand_sets[123]: 1590  LLC: 2048
rand_sets[123]: 1590
Assign rand_sets[124]: 911  LLC: 2048
rand_sets[124]: 911
Assign rand_sets[125]: 1367  LLC: 2048
rand_sets[125]: 1367
Assign rand_sets[126]: 1782  LLC: 2048
rand_sets[126]: 1782
Assign rand_sets[127]: 569  LLC: 2048
rand_sets[127]: 569
Assign rand_sets[128]: 1309  LLC: 2048
rand_sets[128]: 1309
Assign rand_sets[129]: 534  LLC: 2048
rand_sets[129]: 534
Assign rand_sets[130]: 1274  LLC: 2048
rand_sets[130]: 1274
Assign rand_sets[131]: 904  LLC: 2048
rand_sets[131]: 904
Assign rand_sets[132]: 1908  LLC: 2048
rand_sets[132]: 1908
Assign rand_sets[133]: 245  LLC: 2048
rand_sets[133]: 245
Assign rand_sets[134]: 1688  LLC: 2048
rand_sets[134]: 1688
Assign rand_sets[135]: 1660  LLC: 2048
rand_sets[135]: 1660
Assign rand_sets[136]: 1303  LLC: 2048
rand_sets[136]: 1303
Assign rand_sets[137]: 1628  LLC: 2048
rand_sets[137]: 1628
Assign rand_sets[138]: 1857  LLC: 2048
rand_sets[138]: 1857
Assign rand_sets[139]: 187  LLC: 2048
rand_sets[139]: 187
Assign rand_sets[140]: 1389  LLC: 2048
rand_sets[140]: 1389
Assign rand_sets[141]: 881  LLC: 2048
rand_sets[141]: 881
Assign rand_sets[142]: 1166  LLC: 2048
Assign rand_sets[142]: 1039  LLC: 2048
rand_sets[142]: 1039
Assign rand_sets[143]: 1136  LLC: 2048
rand_sets[143]: 1136
Assign rand_sets[144]: 601  LLC: 2048
rand_sets[144]: 601
Assign rand_sets[145]: 967  LLC: 2048
rand_sets[145]: 967
Assign rand_sets[146]: 769  LLC: 2048
rand_sets[146]: 769
Assign rand_sets[147]: 283  LLC: 2048
rand_sets[147]: 283
Assign rand_sets[148]: 559  LLC: 2048
rand_sets[148]: 559
Assign rand_sets[149]: 1075  LLC: 2048
rand_sets[149]: 1075
Assign rand_sets[150]: 829  LLC: 2048
rand_sets[150]: 829
Assign rand_sets[151]: 1681  LLC: 2048
rand_sets[151]: 1681
Assign rand_sets[152]: 1728  LLC: 2048
rand_sets[152]: 1728
Assign rand_sets[153]: 541  LLC: 2048
rand_sets[153]: 541
Assign rand_sets[154]: 421  LLC: 2048
rand_sets[154]: 421
Assign rand_sets[155]: 1037  LLC: 2048
rand_sets[155]: 1037
Assign rand_sets[156]: 13  LLC: 2048
rand_sets[156]: 13
Assign rand_sets[157]: 1707  LLC: 2048
rand_sets[157]: 1707
Assign rand_sets[158]: 1075  LLC: 2048
Assign rand_sets[158]: 1933  LLC: 2048
rand_sets[158]: 1933
Assign rand_sets[159]: 1406  LLC: 2048
rand_sets[159]: 1406
Assign rand_sets[160]: 94  LLC: 2048
rand_sets[160]: 94
Assign rand_sets[161]: 1423  LLC: 2048
rand_sets[161]: 1423
Assign rand_sets[162]: 1854  LLC: 2048
rand_sets[162]: 1854
Assign rand_sets[163]: 230  LLC: 2048
rand_sets[163]: 230
Assign rand_sets[164]: 104  LLC: 2048
rand_sets[164]: 104
Assign rand_sets[165]: 1652  LLC: 2048
rand_sets[165]: 1652
Assign rand_sets[166]: 1446  LLC: 2048
rand_sets[166]: 1446
Assign rand_sets[167]: 1338  LLC: 2048
rand_sets[167]: 1338
Assign rand_sets[168]: 177  LLC: 2048
rand_sets[168]: 177
Assign rand_sets[169]: 195  LLC: 2048
rand_sets[169]: 195
Assign rand_sets[170]: 1171  LLC: 2048
rand_sets[170]: 1171
Assign rand_sets[171]: 1297  LLC: 2048
rand_sets[171]: 1297
Assign rand_sets[172]: 1704  LLC: 2048
rand_sets[172]: 1704
Assign rand_sets[173]: 100  LLC: 2048
rand_sets[173]: 100
Assign rand_sets[174]: 711  LLC: 2048
rand_sets[174]: 711
Assign rand_sets[175]: 1243  LLC: 2048
rand_sets[175]: 1243
Assign rand_sets[176]: 1738  LLC: 2048
rand_sets[176]: 1738
Assign rand_sets[177]: 1504  LLC: 2048
rand_sets[177]: 1504
Assign rand_sets[178]: 96  LLC: 2048
rand_sets[178]: 96
Assign rand_sets[179]: 1249  LLC: 2048
rand_sets[179]: 1249
Assign rand_sets[180]: 1267  LLC: 2048
rand_sets[180]: 1267
Assign rand_sets[181]: 1727  LLC: 2048
rand_sets[181]: 1727
Assign rand_sets[182]: 1545  LLC: 2048
rand_sets[182]: 1545
Assign rand_sets[183]: 1792  LLC: 2048
rand_sets[183]: 1792
Assign rand_sets[184]: 1383  LLC: 2048
rand_sets[184]: 1383
Assign rand_sets[185]: 1954  LLC: 2048
rand_sets[185]: 1954
Assign rand_sets[186]: 739  LLC: 2048
rand_sets[186]: 739
Assign rand_sets[187]: 1061  LLC: 2048
rand_sets[187]: 1061
Assign rand_sets[188]: 672  LLC: 2048
rand_sets[188]: 672
Assign rand_sets[189]: 1057  LLC: 2048
rand_sets[189]: 1057
Assign rand_sets[190]: 1329  LLC: 2048
Assign rand_sets[190]: 1415  LLC: 2048
rand_sets[190]: 1415
Assign rand_sets[191]: 981  LLC: 2048
rand_sets[191]: 981
Assign rand_sets[192]: 98  LLC: 2048
rand_sets[192]: 98
Assign rand_sets[193]: 453  LLC: 2048
rand_sets[193]: 453
Assign rand_sets[194]: 1448  LLC: 2048
rand_sets[194]: 1448
Assign rand_sets[195]: 79  LLC: 2048
rand_sets[195]: 79
Assign rand_sets[196]: 126  LLC: 2048
rand_sets[196]: 126
Assign rand_sets[197]: 1582  LLC: 2048
rand_sets[197]: 1582
Assign rand_sets[198]: 1289  LLC: 2048
rand_sets[198]: 1289
Assign rand_sets[199]: 875  LLC: 2048
rand_sets[199]: 875
Assign rand_sets[200]: 404  LLC: 2048
rand_sets[200]: 404
Assign rand_sets[201]: 415  LLC: 2048
rand_sets[201]: 415
Assign rand_sets[202]: 1712  LLC: 2048
rand_sets[202]: 1712
Assign rand_sets[203]: 1389  LLC: 2048
Assign rand_sets[203]: 169  LLC: 2048
rand_sets[203]: 169
Assign rand_sets[204]: 158  LLC: 2048
rand_sets[204]: 158
Assign rand_sets[205]: 90  LLC: 2048
rand_sets[205]: 90
Assign rand_sets[206]: 1291  LLC: 2048
rand_sets[206]: 1291
Assign rand_sets[207]: 838  LLC: 2048
rand_sets[207]: 838
Assign rand_sets[208]: 1904  LLC: 2048
rand_sets[208]: 1904
Assign rand_sets[209]: 640  LLC: 2048
rand_sets[209]: 640
Assign rand_sets[210]: 1462  LLC: 2048
rand_sets[210]: 1462
Assign rand_sets[211]: 1487  LLC: 2048
rand_sets[211]: 1487
Assign rand_sets[212]: 1863  LLC: 2048
rand_sets[212]: 1863
Assign rand_sets[213]: 1036  LLC: 2048
rand_sets[213]: 1036
Assign rand_sets[214]: 1702  LLC: 2048
Assign rand_sets[214]: 933  LLC: 2048
rand_sets[214]: 933
Assign rand_sets[215]: 554  LLC: 2048
rand_sets[215]: 554
Assign rand_sets[216]: 1496  LLC: 2048
rand_sets[216]: 1496
Assign rand_sets[217]: 1708  LLC: 2048
rand_sets[217]: 1708
Assign rand_sets[218]: 1275  LLC: 2048
Assign rand_sets[218]: 416  LLC: 2048
rand_sets[218]: 416
Assign rand_sets[219]: 491  LLC: 2048
rand_sets[219]: 491
Assign rand_sets[220]: 183  LLC: 2048
rand_sets[220]: 183
Assign rand_sets[221]: 1657  LLC: 2048
rand_sets[221]: 1657
Assign rand_sets[222]: 1060  LLC: 2048
rand_sets[222]: 1060
Assign rand_sets[223]: 626  LLC: 2048
rand_sets[223]: 626
Assign rand_sets[224]: 1315  LLC: 2048
rand_sets[224]: 1315
Assign rand_sets[225]: 1682  LLC: 2048
rand_sets[225]: 1682
Assign rand_sets[226]: 1352  LLC: 2048
rand_sets[226]: 1352
Assign rand_sets[227]: 1152  LLC: 2048
rand_sets[227]: 1152
Assign rand_sets[228]: 965  LLC: 2048
rand_sets[228]: 965
Assign rand_sets[229]: 1190  LLC: 2048
rand_sets[229]: 1190
Assign rand_sets[230]: 1191  LLC: 2048
rand_sets[230]: 1191
Assign rand_sets[231]: 645  LLC: 2048
rand_sets[231]: 645
Assign rand_sets[232]: 695  LLC: 2048
rand_sets[232]: 695
Assign rand_sets[233]: 1495  LLC: 2048
rand_sets[233]: 1495
Assign rand_sets[234]: 1932  LLC: 2048
rand_sets[234]: 1932
Assign rand_sets[235]: 656  LLC: 2048
rand_sets[235]: 656
Assign rand_sets[236]: 1508  LLC: 2048
rand_sets[236]: 1508
Assign rand_sets[237]: 939  LLC: 2048
rand_sets[237]: 939
Assign rand_sets[238]: 355  LLC: 2048
rand_sets[238]: 355
Assign rand_sets[239]: 1092  LLC: 2048
rand_sets[239]: 1092
Assign rand_sets[240]: 850  LLC: 2048
rand_sets[240]: 850
Assign rand_sets[241]: 102  LLC: 2048
rand_sets[241]: 102
Assign rand_sets[242]: 1763  LLC: 2048
rand_sets[242]: 1763
Assign rand_sets[243]: 668  LLC: 2048
Assign rand_sets[243]: 51  LLC: 2048
rand_sets[243]: 51
Assign rand_sets[244]: 1317  LLC: 2048
rand_sets[244]: 1317
Assign rand_sets[245]: 2041  LLC: 2048
rand_sets[245]: 2041
Assign rand_sets[246]: 1374  LLC: 2048
rand_sets[246]: 1374
Assign rand_sets[247]: 682  LLC: 2048
rand_sets[247]: 682
Assign rand_sets[248]: 1466  LLC: 2048
rand_sets[248]: 1466
Assign rand_sets[249]: 1139  LLC: 2048
rand_sets[249]: 1139
Assign rand_sets[250]: 1632  LLC: 2048
rand_sets[250]: 1632
Assign rand_sets[251]: 1117  LLC: 2048
rand_sets[251]: 1117
Assign rand_sets[252]: 1611  LLC: 2048
rand_sets[252]: 1611
Assign rand_sets[253]: 1905  LLC: 2048
rand_sets[253]: 1905
Assign rand_sets[254]: 1662  LLC: 2048
Assign rand_sets[254]: 446  LLC: 2048
rand_sets[254]: 446
Assign rand_sets[255]: 1705  LLC: 2048
rand_sets[255]: 1705

Warmup complete CPU 0 instructions: 1000001 cycles: 411729 (Simulation time: 0 hr 0 min 1 sec) 

Heartbeat CPU 0 instructions: 10000000 cycles: 22818854 heartbeat IPC: 0.438234 cumulative IPC: 0.401658 (Simulation time: 0 hr 0 min 13 sec) 
Heartbeat CPU 0 instructions: 20000000 cycles: 47841877 heartbeat IPC: 0.399632 cumulative IPC: 0.400589 (Simulation time: 0 hr 0 min 26 sec) 
Heartbeat CPU 0 instructions: 30000000 cycles: 72325296 heartbeat IPC: 0.40844 cumulative IPC: 0.403262 (Simulation time: 0 hr 0 min 39 sec) 
Heartbeat CPU 0 instructions: 40000000 cycles: 97165607 heartbeat IPC: 0.402571 cumulative IPC: 0.403085 (Simulation time: 0 hr 0 min 53 sec) 
Heartbeat CPU 0 instructions: 50000000 cycles: 121613165 heartbeat IPC: 0.409039 cumulative IPC: 0.404286 (Simulation time: 0 hr 1 min 6 sec) 
Finished CPU 0 instructions: 50000003 cycles: 123677292 cumulative IPC: 0.404278 (Simulation time: 0 hr 1 min 7 sec) 

ChampSim completed all CPUs

Region of Interest Statistics

CPU 0 cumulative IPC: 0.404278 instructions: 50000003 cycles: 123677292
L1D TOTAL     ACCESS:   18045735  HIT:   15947585  MISS:    2098150
L1D LOAD      ACCESS:   12679066  HIT:   10776280  MISS:    1902786
L1D RFO       ACCESS:    5366669  HIT:    5171305  MISS:     195364
L1D PREFETCH  ACCESS:          0  HIT:          0  MISS:          0
L1D WRITEBACK ACCESS:          0  HIT:          0  MISS:          0
L1D PREFETCH  REQUESTED:          0  ISSUED:          0  USEFUL:          0  USELESS:          0
L1D AVERAGE MISS LATENCY: 67.6901 cycles
L1I TOTAL     ACCESS:   10389256  HIT:   10389256  MISS:          0
L1I LOAD      ACCESS:   10389256  HIT:   10389256  MISS:          0
L1I RFO       ACCESS:          0  HIT:          0  MISS:          0
L1I PREFETCH  ACCESS:          0  HIT:          0  MISS:          0
L1I WRITEBACK ACCESS:          0  HIT:          0  MISS:          0
L1I PREFETCH  REQUESTED:          0  ISSUED:          0  USEFUL:          0  USELESS:          0
L1I AVERAGE MISS LATENCY: -nan cycles
L2C TOTAL     ACCESS:    7407773  HIT:    3280238  MISS:    4127535
L2C LOAD      ACCESS:    1902774  HIT:     939388  MISS:     963386
L2C RFO       ACCESS:     195356  HIT:      26001  MISS:     169355
L2C PREFETCH  ACCESS:    5030190  HIT:    2038955  MISS:    2991235
L2C WRITEBACK ACCESS:     279453  HIT:     275894  MISS:       3559
L2C PREFETCH  REQUESTED:    5438489  ISSUED:    5340337  USEFUL:     537865  USELESS:    2453353
L2C AVERAGE MISS LATENCY: 154.954 cycles
LLC TOTAL     ACCESS:    4347559  HIT:    2372337  MISS:    1975222
LLC LOAD      ACCESS:     943449  HIT:     623376  MISS:     320073
LLC RFO       ACCESS:     169353  HIT:     168251  MISS:       1102
LLC PREFETCH  ACCESS:    3011167  HIT:    1357495  MISS:    1653672
LLC WRITEBACK ACCESS:     223590  HIT:     223215  MISS:        375
LLC PREFETCH  REQUESTED:          0  ISSUED:          0  USEFUL:      52232  USELESS:    1600074
LLC AVERAGE MISS LATENCY: 260.873 cycles
Major fault: 0 Minor fault: 8576
CPU 0 L2C BOP prefetcher final stats
bop_end_phase_max_round 8972
bop_end_phase_max_score 13243
bop_total_phases 22215
bop_fill_called 4187387
bop_fill_insert_rr 4187387
bop_insert_rr_hit 2
bop_insert_rr_evict 4187129
bop_insert_rr_insert 4187385
bop_pref_buffer_buffered 0
bop_pref_buffer_spilled 0
bop_pref_buffer_issued 0
bop_pref_issued 5415477

Entry 0:   0x267609ab681
Entry 1:   0x267609abff7
Entry 2:   0x267609abf93
Entry 3:   0x267609abf9c
Entry 4:   0x267609abfa5
Entry 5:   0x267609ab5e2
Entry 6:   0x267609ab5eb
Entry 7:   0x267609ab5f4
Entry 8:   0x267609ab5fd
Entry 9:   0x267609ac395
Entry 10:   0x267609abc6c
Entry 11:   0x267609abc7e
Entry 12:   0x3f7f4ea03ad
Entry 13:   0x3f7f4ea03bf
Entry 14:   0x267609abc78
Entry 15:   0x267609abc8a
Entry 16:   0x267609abc93
Entry 17:   0x267609ac3b5
Entry 18:   0x267609ac391
Entry 19:   0x267609ac39a
Entry 20:   0x267609ac3a3
Entry 21:   0x267609ac3ac
Entry 22:   0x267609abc59
Entry 23:   0x267609abc50
Entry 24:   0x267609abc62
Entry 25:   0x267609abc6b
Entry 26:   0x267609abc74
Entry 27:   0x267609ab71c
Entry 28:   0x267609ab72e
Entry 29:   0x267609abe70
Entry 30:   0x267609ac3de
Entry 31:   0x267609ac3e7
Entry 32:   0x267609ac3f0
Entry 33:   0x267609ab670
Entry 34:   0x267609abf2a
Entry 35:   0x267609ab6d5
Entry 36:   0x267609ab6e7
Entry 37:   0x267609abf21
Entry 38:   0x267609ab6c3
Entry 39:   0x267609ab870
Entry 40:   0x267609ab879
Entry 41:   0x267609ac1a1
Entry 42:   0x267609ac2ca
Entry 43:   0x267609ac4ac
Entry 44:   0x267609ac1aa
Entry 45:   0x267609ac1b3
Entry 46:   0x267609ac2dc
Entry 47:   0x3f7f4e9f3f8
Entry 48:   0x267609ab530
Entry 49:   0x267609ab539
Entry 50:   0x267609ab85d
Entry 51:   0x267609ab86f
Entry 52:   0x267609ab84b
Entry 53:   0x267609ab854
Entry 54:   0x267609ab866
Entry 55:   0x267609ac4a5
Entry 56:   0x267609ac4ae
Entry 57:   0x267609ac4b7
Entry 58:   0x267609abb34
Entry 59:   0x267609ab9f0
Entry 60:   0x267609ab9de
Entry 61:   0x267609ab9f9
Entry 62:   0x267609ab35c
Entry 63:   0x267609ab365
Entry 64:   0x267609ab36e
Entry 65:   0x267609ab377
Entry 66:   0x267609abf92
Entry 67:   0x267609ab954
Entry 68:   0x267609ab95d
Entry 69:   0x267609ac115
Entry 70:   0x267609ac11e
Entry 71:   0x267609ab5ca
Entry 72:   0x267609ab5d3
Entry 73:   0x267609ab5dc
Entry 74:   0x267609ab5e5
Entry 75:   0x267609ab5ee
Entry 76:   0x267609abee8
Entry 77:   0x267609abef1
Entry 78:   0x267609abefa
Entry 79:   0x3f7f4e9f0c9
Entry 80:   0x3f7f4e9f2f5
Entry 81:   0x3f7f4ea08ba
Entry 82:   0x3f7f4e9f88c
Entry 83:   0x3f7f4e9f2fa
Entry 84:   0x3f7f4e9f5fd
Entry 85:   0x3f7f4e9f6a5
Entry 86:   0x3f7f4e9f2a5
Entry 87:   0x3f7f4e9f89f
Entry 88:   0x3f7f4e9f29f
Entry 89:   0x3f7f4ea08bb
Entry 90:   0x3f7f4e9f13c
Entry 91:   0x3f7f4ea08b9
Entry 92:   0x3f7f4e9f5ac
Entry 93:   0x3f7f4e9f134
Entry 94:   0x3f7f4e9f43e
Entry 95:   0x3f7f4e9f478
Entry 96:   0x3f7f4e9f277
Entry 97:   0x3f7f4e9f5ff
Entry 98:   0x3f7f4e9fe69
Entry 99:   0x3f7f4e9fe6b
Entry 100:   0x3f7f4e9fe6d
Entry 101:   0x3f7f4e9fe6f
Entry 102:   0x3f7f4e9f524
Entry 103:   0x3f7f4e9f1f3
Entry 104:   0x3f7f4e9f46d
Entry 105:   0x3f7f4e9f46f
Entry 106:   0x3f7f4e9f471
Entry 107:   0x3f7f4e9f31e
Entry 108:   0x3f7f4e9f331
Entry 109:   0x3f7f4e9f333
Entry 110:   0x3f7f4ea0335
Entry 111:   0x3f7f4e9f2e7
Entry 112:   0x3f7f4e9fea8
Entry 113:   0x3f7f4e9feaa
Entry 114:   0x3f7f4e9feac
Entry 115:   0x3f7f4e9f52d
Entry 116:   0x267609ac428
Entry 117:   0x3f7f4e9f2f8
Entry 118:   0x267609abcdd
Entry 119:   0x267609ab8fb
Entry 120:   0x267609ab9c2
Entry 121:   0x267609ab9e2
Entry 122:   0x267609abc76
Entry 123:   0x267609abdc1
Entry 124:   0x267609abc5c
Entry 125:   0x267609ab996
Entry 126:   0x267609abc2a
Entry 127:   0x267609abc81
Entry 128:   0x267609abca3
Entry 129:   0x267609abc83
Entry 130:   0x267609abc79
Entry 131:   0x267609abc56
Entry 132:   0x267609abc23
Entry 133:   0x267609abe02
Entry 134:   0x267609abd5c
Entry 135:   0x267609abc8f
Entry 136:   0x267609abc7b
Entry 137:   0x267609abc5b
Entry 138:   0x267609ac052
Entry 139:   0x267609abc52
Entry 140:   0x267609abc72
Entry 141:   0x267609abc35
Entry 142:   0x267609ac072
Entry 143:   0x267609abf34
Entry 144:   0x267609abd2e
Entry 145:   0x267609abbb5
Entry 146:   0x267609abbb6
Entry 147:   0x267609abd0b
Entry 148:   0x267609abc7a
Entry 149:   0x267609ac269
Entry 150:   0x267609abcbd
Entry 151:   0x267609abbfe
Entry 152:   0x267609ac0b3
Entry 153:   0x267609abea2
Entry 154:   0x267609abea4
Entry 155:   0x267609abea0
Entry 156:   0x267609abea6
Entry 157:   0x267609abdc2
Entry 158:   0x267609abc51
Entry 159:   0x267609abc55
Entry 160:   0x267609abc57
Entry 161:   0x267609abdc5
Entry 162:   0x267609abc4f
Entry 163:   0x267609abbfc
Entry 164:   0x267609abbf4
Entry 165:   0x267609abbf6
Entry 166:   0x267609abbf8
Entry 167:   0x3f7f4e9f12e
Entry 168:   0x267609abbe8
Entry 169:   0x267609abbec
Entry 170:   0x267609abbee
Entry 171:   0x267609abbea
Entry 172:   0x267609abbc7
Entry 173:   0x267609abbc9
Entry 174:   0x267609abcfa
Entry 175:   0x267609abdc0
Entry 176:   0x267609abcf8
Entry 177:   0x267609abcf9
Entry 178:   0x267609abcdb
Entry 179:   0x3f7f4e9f6c3
Entry 180:   0x3f7f4e9f6c5
Entry 181:   0x267609abc77
Entry 182:   0x267609abcdc
Entry 183:   0x267609abcde
Entry 184:   0x267609abbd8
Entry 185:   0x267609abbd6
Entry 186:   0x267609abce3
Entry 187:   0x267609abce1
Entry 188:   0x3f7f4e9f879
Entry 189:   0x3f7f4e9f521
Entry 190:   0x3f7f4e9f523
Entry 191:   0x267609ac464
Entry 192:   0x267609ac466
Entry 193:   0x267609ac468
Entry 194:   0x267609ac410
Entry 195:   0x267609ac414
Entry 196:   0x267609ac462
Entry 197:   0x267609ac2e3
Entry 198:   0x267609ac3a8
Entry 199:   0x267609ac20f
Entry 200:   0x267609ac211
Entry 201:   0x267609ac213
Entry 202:   0x267609ac215
Entry 203:   0x267609ac217
Entry 204:   0x267609ab728
Entry 205:   0x267609ab72a
Entry 206:   0x267609ab72c
Entry 207:   0x267609abf88
Entry 208:   0x267609abf85
Entry 209:   0x267609ac37e
Entry 210:   0x267609abf8c
Entry 211:   0x267609ac418
Entry 212:   0x267609ac174
Entry 213:   0x267609abf8b
Entry 214:   0x267609ab837
Entry 215:   0x267609ab839
Entry 216:   0x267609ab83d
Entry 217:   0x267609ab83b
Entry 218:   0x267609ab83f
Entry 219:   0x267609ab9fe
Entry 220:   0x267609ab9fc
Entry 221:   0x3f7f4e9f0c4
Entry 222:   0x267609ac044
Entry 223:   0x267609ac046
Entry 224:   0x267609ac04c
Entry 225:   0x267609ac048
Entry 226:   0x267609ac04a
Entry 227:   0x267609ac0dd
Entry 228:   0x267609ac0df
Entry 229:   0x267609ac0e1
Entry 230:   0x3f7f4e9f47f
Entry 231:   0x267609abb4b
Entry 232:   0x267609abb4f
Entry 233:   0x267609abb53
Entry 234:   0x267609abb4d
Entry 235:   0x267609abb51
Entry 236:   0x267609ab7be
Entry 237:   0x3f7f4e9fe52
Entry 238:   0x3f7f4e9fe13
Entry 239:   0x267609abe69
Entry 240:   0x3f7f4e9f87e
Entry 241:   0x3f7f4e9f120
Entry 242:   0x3f7f4e9f13e
Entry 243:   0x3f7f4e9f4e7
Entry 244:   0x267609aba1b
Entry 245:   0x267609aba17
Entry 246:   0x267609aba1f
Entry 247:   0x3f7f4e9f244
Entry 248:   0x3f7f4e9f1de
Entry 249:   0x3f7f4e9f5fc
Entry 250:   0x3f7f4e9fe9d
Entry 251:   0x3f7f4e9f2a6
Entry 252:   0x3f7f4e9f2aa
Entry 253:   0x3f7f4e9fe9f
Entry 254:   0x3f7f4e9f32e
Entry 255:   0x3f7f4e9f47a

DRAM Statistics
 CHANNEL 0
 RQ ROW_BUFFER_HIT:     445965  ROW_BUFFER_MISS:    1528811
 DBUS_CONGESTED:     537409
 WQ ROW_BUFFER_HIT:       1974  ROW_BUFFER_MISS:       4595  FULL:          0

 AVG_CONGESTED_CYCLE: 5

CPU 0 Branch Prediction Accuracy: 92.4776% MPKI: 18.7596 Average ROB Occupancy at Mispredict: 28.3218

Branch types
NOT_BRANCH: 37530524 75.061%
BRANCH_DIRECT_JUMP: 1325615 2.65123%
BRANCH_INDIRECT: 0 0%
BRANCH_CONDITIONAL: 8470674 16.9413%
BRANCH_DIRECT_CALL: 1261499 2.523%
BRANCH_INDIRECT_CALL: 74908 0.149816%
BRANCH_RETURN: 1336407 2.67281%
BRANCH_OTHER: 0 0%

