
*** ChampSim Multicore Out-of-Order Simulator ***

Warmup Instructions: 1000000
Simulation Instructions: 50000000
Number of CPUs: 1
LLC sets: 2048
LLC ways: 16
Off-chip DRAM Size: 4096 MB Channels: 1 Width: 64-bit Data Rate: 3200 MT/s

CPU 0 runs /home/carter/Documents/Homework/Carter-Owens-ECE-Workbook-Spring-2025/ECE-5750-Architecture/assignments/ChampSim/dpc3_traces/620.omnetpp_s-874B.champsimtrace.xz
CPU 0 L2C Best Offset prefetcher
Initialize SHIP state
Assign rand_sets[0]: 454  LLC: 2048
rand_sets[0]: 454
Assign rand_sets[1]: 1662  LLC: 2048
rand_sets[1]: 1662
Assign rand_sets[2]: 1921  LLC: 2048
rand_sets[2]: 1921
Assign rand_sets[3]: 1131  LLC: 2048
rand_sets[3]: 1131
Assign rand_sets[4]: 331  LLC: 2048
rand_sets[4]: 331
Assign rand_sets[5]: 1531  LLC: 2048
rand_sets[5]: 1531
Assign rand_sets[6]: 482  LLC: 2048
rand_sets[6]: 482
Assign rand_sets[7]: 1275  LLC: 2048
rand_sets[7]: 1275
Assign rand_sets[8]: 1876  LLC: 2048
rand_sets[8]: 1876
Assign rand_sets[9]: 2038  LLC: 2048
rand_sets[9]: 2038
Assign rand_sets[10]: 701  LLC: 2048
rand_sets[10]: 701
Assign rand_sets[11]: 479  LLC: 2048
rand_sets[11]: 479
Assign rand_sets[12]: 892  LLC: 2048
rand_sets[12]: 892
Assign rand_sets[13]: 1820  LLC: 2048
rand_sets[13]: 1820
Assign rand_sets[14]: 1505  LLC: 2048
rand_sets[14]: 1505
Assign rand_sets[15]: 1159  LLC: 2048
rand_sets[15]: 1159
Assign rand_sets[16]: 513  LLC: 2048
rand_sets[16]: 513
Assign rand_sets[17]: 703  LLC: 2048
rand_sets[17]: 703
Assign rand_sets[18]: 561  LLC: 2048
rand_sets[18]: 561
Assign rand_sets[19]: 990  LLC: 2048
rand_sets[19]: 990
Assign rand_sets[20]: 342  LLC: 2048
rand_sets[20]: 342
Assign rand_sets[21]: 882  LLC: 2048
rand_sets[21]: 882
Assign rand_sets[22]: 15  LLC: 2048
rand_sets[22]: 15
Assign rand_sets[23]: 71  LLC: 2048
rand_sets[23]: 71
Assign rand_sets[24]: 1127  LLC: 2048
rand_sets[24]: 1127
Assign rand_sets[25]: 1382  LLC: 2048
rand_sets[25]: 1382
Assign rand_sets[26]: 647  LLC: 2048
rand_sets[26]: 647
Assign rand_sets[27]: 857  LLC: 2048
rand_sets[27]: 857
Assign rand_sets[28]: 1450  LLC: 2048
rand_sets[28]: 1450
Assign rand_sets[29]: 1160  LLC: 2048
rand_sets[29]: 1160
Assign rand_sets[30]: 1852  LLC: 2048
rand_sets[30]: 1852
Assign rand_sets[31]: 1881  LLC: 2048
rand_sets[31]: 1881
Assign rand_sets[32]: 1770  LLC: 2048
rand_sets[32]: 1770
Assign rand_sets[33]: 1622  LLC: 2048
rand_sets[33]: 1622
Assign rand_sets[34]: 275  LLC: 2048
rand_sets[34]: 275
Assign rand_sets[35]: 635  LLC: 2048
rand_sets[35]: 635
Assign rand_sets[36]: 466  LLC: 2048
rand_sets[36]: 466
Assign rand_sets[37]: 1413  LLC: 2048
rand_sets[37]: 1413
Assign rand_sets[38]: 417  LLC: 2048
rand_sets[38]: 417
Assign rand_sets[39]: 472  LLC: 2048
rand_sets[39]: 472
Assign rand_sets[40]: 1340  LLC: 2048
rand_sets[40]: 1340
Assign rand_sets[41]: 852  LLC: 2048
rand_sets[41]: 852
Assign rand_sets[42]: 1365  LLC: 2048
rand_sets[42]: 1365
Assign rand_sets[43]: 47  LLC: 2048
rand_sets[43]: 47
Assign rand_sets[44]: 823  LLC: 2048
rand_sets[44]: 823
Assign rand_sets[45]: 686  LLC: 2048
rand_sets[45]: 686
Assign rand_sets[46]: 1637  LLC: 2048
rand_sets[46]: 1637
Assign rand_sets[47]: 1115  LLC: 2048
rand_sets[47]: 1115
Assign rand_sets[48]: 986  LLC: 2048
rand_sets[48]: 986
Assign rand_sets[49]: 258  LLC: 2048
rand_sets[49]: 258
Assign rand_sets[50]: 633  LLC: 2048
rand_sets[50]: 633
Assign rand_sets[51]: 920  LLC: 2048
rand_sets[51]: 920
Assign rand_sets[52]: 204  LLC: 2048
rand_sets[52]: 204
Assign rand_sets[53]: 227  LLC: 2048
rand_sets[53]: 227
Assign rand_sets[54]: 1818  LLC: 2048
rand_sets[54]: 1818
Assign rand_sets[55]: 886  LLC: 2048
rand_sets[55]: 886
Assign rand_sets[56]: 1422  LLC: 2048
rand_sets[56]: 1422
Assign rand_sets[57]: 607  LLC: 2048
rand_sets[57]: 607
Assign rand_sets[58]: 217  LLC: 2048
rand_sets[58]: 217
Assign rand_sets[59]: 1945  LLC: 2048
rand_sets[59]: 1945
Assign rand_sets[60]: 143  LLC: 2048
rand_sets[60]: 143
Assign rand_sets[61]: 1311  LLC: 2048
rand_sets[61]: 1311
Assign rand_sets[62]: 319  LLC: 2048
rand_sets[62]: 319
Assign rand_sets[63]: 1846  LLC: 2048
rand_sets[63]: 1846
Assign rand_sets[64]: 238  LLC: 2048
rand_sets[64]: 238
Assign rand_sets[65]: 67  LLC: 2048
rand_sets[65]: 67
Assign rand_sets[66]: 1912  LLC: 2048
rand_sets[66]: 1912
Assign rand_sets[67]: 1613  LLC: 2048
rand_sets[67]: 1613
Assign rand_sets[68]: 1293  LLC: 2048
rand_sets[68]: 1293
Assign rand_sets[69]: 1018  LLC: 2048
rand_sets[69]: 1018
Assign rand_sets[70]: 1982  LLC: 2048
rand_sets[70]: 1982
Assign rand_sets[71]: 1702  LLC: 2048
rand_sets[71]: 1702
Assign rand_sets[72]: 1498  LLC: 2048
rand_sets[72]: 1498
Assign rand_sets[73]: 228  LLC: 2048
rand_sets[73]: 228
Assign rand_sets[74]: 1414  LLC: 2048
rand_sets[74]: 1414
Assign rand_sets[75]: 1166  LLC: 2048
rand_sets[75]: 1166
Assign rand_sets[76]: 732  LLC: 2048
rand_sets[76]: 732
Assign rand_sets[77]: 297  LLC: 2048
rand_sets[77]: 297
Assign rand_sets[78]: 1133  LLC: 2048
rand_sets[78]: 1133
Assign rand_sets[79]: 846  LLC: 2048
rand_sets[79]: 846
Assign rand_sets[80]: 767  LLC: 2048
rand_sets[80]: 767
Assign rand_sets[81]: 1878  LLC: 2048
rand_sets[81]: 1878
Assign rand_sets[82]: 993  LLC: 2048
rand_sets[82]: 993
Assign rand_sets[83]: 1392  LLC: 2048
rand_sets[83]: 1392
Assign rand_sets[84]: 1568  LLC: 2048
rand_sets[84]: 1568
Assign rand_sets[85]: 1787  LLC: 2048
rand_sets[85]: 1787
Assign rand_sets[86]: 399  LLC: 2048
rand_sets[86]: 399
Assign rand_sets[87]: 1201  LLC: 2048
rand_sets[87]: 1201
Assign rand_sets[88]: 856  LLC: 2048
rand_sets[88]: 856
Assign rand_sets[89]: 773  LLC: 2048
rand_sets[89]: 773
Assign rand_sets[90]: 1680  LLC: 2048
rand_sets[90]: 1680
Assign rand_sets[91]: 1477  LLC: 2048
rand_sets[91]: 1477
Assign rand_sets[92]: 9  LLC: 2048
rand_sets[92]: 9
Assign rand_sets[93]: 1500  LLC: 2048
rand_sets[93]: 1500
Assign rand_sets[94]: 851  LLC: 2048
rand_sets[94]: 851
Assign rand_sets[95]: 973  LLC: 2048
rand_sets[95]: 973
Assign rand_sets[96]: 938  LLC: 2048
rand_sets[96]: 938
Assign rand_sets[97]: 1851  LLC: 2048
rand_sets[97]: 1851
Assign rand_sets[98]: 1608  LLC: 2048
rand_sets[98]: 1608
Assign rand_sets[99]: 1945  LLC: 2048
Assign rand_sets[99]: 1106  LLC: 2048
rand_sets[99]: 1106
Assign rand_sets[100]: 979  LLC: 2048
rand_sets[100]: 979
Assign rand_sets[101]: 338  LLC: 2048
rand_sets[101]: 338
Assign rand_sets[102]: 1693  LLC: 2048
rand_sets[102]: 1693
Assign rand_sets[103]: 6  LLC: 2048
rand_sets[103]: 6
Assign rand_sets[104]: 671  LLC: 2048
rand_sets[104]: 671
Assign rand_sets[105]: 490  LLC: 2048
rand_sets[105]: 490
Assign rand_sets[106]: 1461  LLC: 2048
rand_sets[106]: 1461
Assign rand_sets[107]: 1730  LLC: 2048
rand_sets[107]: 1730
Assign rand_sets[108]: 1030  LLC: 2048
rand_sets[108]: 1030
Assign rand_sets[109]: 19  LLC: 2048
rand_sets[109]: 19
Assign rand_sets[110]: 920  LLC: 2048
Assign rand_sets[110]: 329  LLC: 2048
rand_sets[110]: 329
Assign rand_sets[111]: 1714  LLC: 2048
rand_sets[111]: 1714
Assign rand_sets[112]: 1  LLC: 2048
rand_sets[112]: 1
Assign rand_sets[113]: 1822  LLC: 2048
rand_sets[113]: 1822
Assign rand_sets[114]: 172  LLC: 2048
rand_sets[114]: 172
Assign rand_sets[115]: 1586  LLC: 2048
rand_sets[115]: 1586
Assign rand_sets[116]: 648  LLC: 2048
rand_sets[116]: 648
Assign rand_sets[117]: 1329  LLC: 2048
rand_sets[117]: 1329
Assign rand_sets[118]: 668  LLC: 2048
rand_sets[118]: 668
Assign rand_sets[119]: 1874  LLC: 2048
rand_sets[119]: 1874
Assign rand_sets[120]: 70  LLC: 2048
rand_sets[120]: 70
Assign rand_sets[121]: 661  LLC: 2048
rand_sets[121]: 661
Assign rand_sets[122]: 1649  LLC: 2048
rand_sets[122]: 1649
Assign rand_sets[123]: 1590  LLC: 2048
rand_sets[123]: 1590
Assign rand_sets[124]: 911  LLC: 2048
rand_sets[124]: 911
Assign rand_sets[125]: 1367  LLC: 2048
rand_sets[125]: 1367
Assign rand_sets[126]: 1782  LLC: 2048
rand_sets[126]: 1782
Assign rand_sets[127]: 569  LLC: 2048
rand_sets[127]: 569
Assign rand_sets[128]: 1309  LLC: 2048
rand_sets[128]: 1309
Assign rand_sets[129]: 534  LLC: 2048
rand_sets[129]: 534
Assign rand_sets[130]: 1274  LLC: 2048
rand_sets[130]: 1274
Assign rand_sets[131]: 904  LLC: 2048
rand_sets[131]: 904
Assign rand_sets[132]: 1908  LLC: 2048
rand_sets[132]: 1908
Assign rand_sets[133]: 245  LLC: 2048
rand_sets[133]: 245
Assign rand_sets[134]: 1688  LLC: 2048
rand_sets[134]: 1688
Assign rand_sets[135]: 1660  LLC: 2048
rand_sets[135]: 1660
Assign rand_sets[136]: 1303  LLC: 2048
rand_sets[136]: 1303
Assign rand_sets[137]: 1628  LLC: 2048
rand_sets[137]: 1628
Assign rand_sets[138]: 1857  LLC: 2048
rand_sets[138]: 1857
Assign rand_sets[139]: 187  LLC: 2048
rand_sets[139]: 187
Assign rand_sets[140]: 1389  LLC: 2048
rand_sets[140]: 1389
Assign rand_sets[141]: 881  LLC: 2048
rand_sets[141]: 881
Assign rand_sets[142]: 1166  LLC: 2048
Assign rand_sets[142]: 1039  LLC: 2048
rand_sets[142]: 1039
Assign rand_sets[143]: 1136  LLC: 2048
rand_sets[143]: 1136
Assign rand_sets[144]: 601  LLC: 2048
rand_sets[144]: 601
Assign rand_sets[145]: 967  LLC: 2048
rand_sets[145]: 967
Assign rand_sets[146]: 769  LLC: 2048
rand_sets[146]: 769
Assign rand_sets[147]: 283  LLC: 2048
rand_sets[147]: 283
Assign rand_sets[148]: 559  LLC: 2048
rand_sets[148]: 559
Assign rand_sets[149]: 1075  LLC: 2048
rand_sets[149]: 1075
Assign rand_sets[150]: 829  LLC: 2048
rand_sets[150]: 829
Assign rand_sets[151]: 1681  LLC: 2048
rand_sets[151]: 1681
Assign rand_sets[152]: 1728  LLC: 2048
rand_sets[152]: 1728
Assign rand_sets[153]: 541  LLC: 2048
rand_sets[153]: 541
Assign rand_sets[154]: 421  LLC: 2048
rand_sets[154]: 421
Assign rand_sets[155]: 1037  LLC: 2048
rand_sets[155]: 1037
Assign rand_sets[156]: 13  LLC: 2048
rand_sets[156]: 13
Assign rand_sets[157]: 1707  LLC: 2048
rand_sets[157]: 1707
Assign rand_sets[158]: 1075  LLC: 2048
Assign rand_sets[158]: 1933  LLC: 2048
rand_sets[158]: 1933
Assign rand_sets[159]: 1406  LLC: 2048
rand_sets[159]: 1406
Assign rand_sets[160]: 94  LLC: 2048
rand_sets[160]: 94
Assign rand_sets[161]: 1423  LLC: 2048
rand_sets[161]: 1423
Assign rand_sets[162]: 1854  LLC: 2048
rand_sets[162]: 1854
Assign rand_sets[163]: 230  LLC: 2048
rand_sets[163]: 230
Assign rand_sets[164]: 104  LLC: 2048
rand_sets[164]: 104
Assign rand_sets[165]: 1652  LLC: 2048
rand_sets[165]: 1652
Assign rand_sets[166]: 1446  LLC: 2048
rand_sets[166]: 1446
Assign rand_sets[167]: 1338  LLC: 2048
rand_sets[167]: 1338
Assign rand_sets[168]: 177  LLC: 2048
rand_sets[168]: 177
Assign rand_sets[169]: 195  LLC: 2048
rand_sets[169]: 195
Assign rand_sets[170]: 1171  LLC: 2048
rand_sets[170]: 1171
Assign rand_sets[171]: 1297  LLC: 2048
rand_sets[171]: 1297
Assign rand_sets[172]: 1704  LLC: 2048
rand_sets[172]: 1704
Assign rand_sets[173]: 100  LLC: 2048
rand_sets[173]: 100
Assign rand_sets[174]: 711  LLC: 2048
rand_sets[174]: 711
Assign rand_sets[175]: 1243  LLC: 2048
rand_sets[175]: 1243
Assign rand_sets[176]: 1738  LLC: 2048
rand_sets[176]: 1738
Assign rand_sets[177]: 1504  LLC: 2048
rand_sets[177]: 1504
Assign rand_sets[178]: 96  LLC: 2048
rand_sets[178]: 96
Assign rand_sets[179]: 1249  LLC: 2048
rand_sets[179]: 1249
Assign rand_sets[180]: 1267  LLC: 2048
rand_sets[180]: 1267
Assign rand_sets[181]: 1727  LLC: 2048
rand_sets[181]: 1727
Assign rand_sets[182]: 1545  LLC: 2048
rand_sets[182]: 1545
Assign rand_sets[183]: 1792  LLC: 2048
rand_sets[183]: 1792
Assign rand_sets[184]: 1383  LLC: 2048
rand_sets[184]: 1383
Assign rand_sets[185]: 1954  LLC: 2048
rand_sets[185]: 1954
Assign rand_sets[186]: 739  LLC: 2048
rand_sets[186]: 739
Assign rand_sets[187]: 1061  LLC: 2048
rand_sets[187]: 1061
Assign rand_sets[188]: 672  LLC: 2048
rand_sets[188]: 672
Assign rand_sets[189]: 1057  LLC: 2048
rand_sets[189]: 1057
Assign rand_sets[190]: 1329  LLC: 2048
Assign rand_sets[190]: 1415  LLC: 2048
rand_sets[190]: 1415
Assign rand_sets[191]: 981  LLC: 2048
rand_sets[191]: 981
Assign rand_sets[192]: 98  LLC: 2048
rand_sets[192]: 98
Assign rand_sets[193]: 453  LLC: 2048
rand_sets[193]: 453
Assign rand_sets[194]: 1448  LLC: 2048
rand_sets[194]: 1448
Assign rand_sets[195]: 79  LLC: 2048
rand_sets[195]: 79
Assign rand_sets[196]: 126  LLC: 2048
rand_sets[196]: 126
Assign rand_sets[197]: 1582  LLC: 2048
rand_sets[197]: 1582
Assign rand_sets[198]: 1289  LLC: 2048
rand_sets[198]: 1289
Assign rand_sets[199]: 875  LLC: 2048
rand_sets[199]: 875
Assign rand_sets[200]: 404  LLC: 2048
rand_sets[200]: 404
Assign rand_sets[201]: 415  LLC: 2048
rand_sets[201]: 415
Assign rand_sets[202]: 1712  LLC: 2048
rand_sets[202]: 1712
Assign rand_sets[203]: 1389  LLC: 2048
Assign rand_sets[203]: 169  LLC: 2048
rand_sets[203]: 169
Assign rand_sets[204]: 158  LLC: 2048
rand_sets[204]: 158
Assign rand_sets[205]: 90  LLC: 2048
rand_sets[205]: 90
Assign rand_sets[206]: 1291  LLC: 2048
rand_sets[206]: 1291
Assign rand_sets[207]: 838  LLC: 2048
rand_sets[207]: 838
Assign rand_sets[208]: 1904  LLC: 2048
rand_sets[208]: 1904
Assign rand_sets[209]: 640  LLC: 2048
rand_sets[209]: 640
Assign rand_sets[210]: 1462  LLC: 2048
rand_sets[210]: 1462
Assign rand_sets[211]: 1487  LLC: 2048
rand_sets[211]: 1487
Assign rand_sets[212]: 1863  LLC: 2048
rand_sets[212]: 1863
Assign rand_sets[213]: 1036  LLC: 2048
rand_sets[213]: 1036
Assign rand_sets[214]: 1702  LLC: 2048
Assign rand_sets[214]: 933  LLC: 2048
rand_sets[214]: 933
Assign rand_sets[215]: 554  LLC: 2048
rand_sets[215]: 554
Assign rand_sets[216]: 1496  LLC: 2048
rand_sets[216]: 1496
Assign rand_sets[217]: 1708  LLC: 2048
rand_sets[217]: 1708
Assign rand_sets[218]: 1275  LLC: 2048
Assign rand_sets[218]: 416  LLC: 2048
rand_sets[218]: 416
Assign rand_sets[219]: 491  LLC: 2048
rand_sets[219]: 491
Assign rand_sets[220]: 183  LLC: 2048
rand_sets[220]: 183
Assign rand_sets[221]: 1657  LLC: 2048
rand_sets[221]: 1657
Assign rand_sets[222]: 1060  LLC: 2048
rand_sets[222]: 1060
Assign rand_sets[223]: 626  LLC: 2048
rand_sets[223]: 626
Assign rand_sets[224]: 1315  LLC: 2048
rand_sets[224]: 1315
Assign rand_sets[225]: 1682  LLC: 2048
rand_sets[225]: 1682
Assign rand_sets[226]: 1352  LLC: 2048
rand_sets[226]: 1352
Assign rand_sets[227]: 1152  LLC: 2048
rand_sets[227]: 1152
Assign rand_sets[228]: 965  LLC: 2048
rand_sets[228]: 965
Assign rand_sets[229]: 1190  LLC: 2048
rand_sets[229]: 1190
Assign rand_sets[230]: 1191  LLC: 2048
rand_sets[230]: 1191
Assign rand_sets[231]: 645  LLC: 2048
rand_sets[231]: 645
Assign rand_sets[232]: 695  LLC: 2048
rand_sets[232]: 695
Assign rand_sets[233]: 1495  LLC: 2048
rand_sets[233]: 1495
Assign rand_sets[234]: 1932  LLC: 2048
rand_sets[234]: 1932
Assign rand_sets[235]: 656  LLC: 2048
rand_sets[235]: 656
Assign rand_sets[236]: 1508  LLC: 2048
rand_sets[236]: 1508
Assign rand_sets[237]: 939  LLC: 2048
rand_sets[237]: 939
Assign rand_sets[238]: 355  LLC: 2048
rand_sets[238]: 355
Assign rand_sets[239]: 1092  LLC: 2048
rand_sets[239]: 1092
Assign rand_sets[240]: 850  LLC: 2048
rand_sets[240]: 850
Assign rand_sets[241]: 102  LLC: 2048
rand_sets[241]: 102
Assign rand_sets[242]: 1763  LLC: 2048
rand_sets[242]: 1763
Assign rand_sets[243]: 668  LLC: 2048
Assign rand_sets[243]: 51  LLC: 2048
rand_sets[243]: 51
Assign rand_sets[244]: 1317  LLC: 2048
rand_sets[244]: 1317
Assign rand_sets[245]: 2041  LLC: 2048
rand_sets[245]: 2041
Assign rand_sets[246]: 1374  LLC: 2048
rand_sets[246]: 1374
Assign rand_sets[247]: 682  LLC: 2048
rand_sets[247]: 682
Assign rand_sets[248]: 1466  LLC: 2048
rand_sets[248]: 1466
Assign rand_sets[249]: 1139  LLC: 2048
rand_sets[249]: 1139
Assign rand_sets[250]: 1632  LLC: 2048
rand_sets[250]: 1632
Assign rand_sets[251]: 1117  LLC: 2048
rand_sets[251]: 1117
Assign rand_sets[252]: 1611  LLC: 2048
rand_sets[252]: 1611
Assign rand_sets[253]: 1905  LLC: 2048
rand_sets[253]: 1905
Assign rand_sets[254]: 1662  LLC: 2048
Assign rand_sets[254]: 446  LLC: 2048
rand_sets[254]: 446
Assign rand_sets[255]: 1705  LLC: 2048
rand_sets[255]: 1705

Warmup complete CPU 0 instructions: 1000002 cycles: 561159 (Simulation time: 0 hr 0 min 1 sec) 

Heartbeat CPU 0 instructions: 10000001 cycles: 22690307 heartbeat IPC: 0.440717 cumulative IPC: 0.406703 (Simulation time: 0 hr 0 min 17 sec) 
Heartbeat CPU 0 instructions: 20000000 cycles: 47572447 heartbeat IPC: 0.401895 cumulative IPC: 0.404158 (Simulation time: 0 hr 0 min 34 sec) 
Heartbeat CPU 0 instructions: 30000002 cycles: 72969510 heartbeat IPC: 0.393746 cumulative IPC: 0.400506 (Simulation time: 0 hr 0 min 52 sec) 
Heartbeat CPU 0 instructions: 40000000 cycles: 98505396 heartbeat IPC: 0.391606 cumulative IPC: 0.398186 (Simulation time: 0 hr 1 min 9 sec) 
Heartbeat CPU 0 instructions: 50000000 cycles: 124370927 heartbeat IPC: 0.386615 cumulative IPC: 0.395768 (Simulation time: 0 hr 1 min 27 sec) 
Finished CPU 0 instructions: 50000002 cycles: 126252501 cumulative IPC: 0.396032 (Simulation time: 0 hr 1 min 29 sec) 

ChampSim completed all CPUs

Region of Interest Statistics

CPU 0 cumulative IPC: 0.396032 instructions: 50000002 cycles: 126252501
L1D TOTAL     ACCESS:   20687317  HIT:   19691595  MISS:     995722
L1D LOAD      ACCESS:   11755018  HIT:   10882672  MISS:     872346
L1D RFO       ACCESS:    8932299  HIT:    8808923  MISS:     123376
L1D PREFETCH  ACCESS:          0  HIT:          0  MISS:          0
L1D WRITEBACK ACCESS:          0  HIT:          0  MISS:          0
L1D PREFETCH  REQUESTED:          0  ISSUED:          0  USEFUL:          0  USELESS:          0
L1D AVERAGE MISS LATENCY: 93.1121 cycles
L1I TOTAL     ACCESS:   13028170  HIT:   13009205  MISS:      18965
L1I LOAD      ACCESS:   13028170  HIT:   13009205  MISS:      18965
L1I RFO       ACCESS:          0  HIT:          0  MISS:          0
L1I PREFETCH  ACCESS:          0  HIT:          0  MISS:          0
L1I WRITEBACK ACCESS:          0  HIT:          0  MISS:          0
L1I PREFETCH  REQUESTED:          0  ISSUED:          0  USEFUL:          0  USELESS:          0
L1I AVERAGE MISS LATENCY: 36.8494 cycles
L2C TOTAL     ACCESS:    4280099  HIT:    1915200  MISS:    2364899
L2C LOAD      ACCESS:     891259  HIT:     380166  MISS:     511093
L2C RFO       ACCESS:     123371  HIT:      54057  MISS:      69314
L2C PREFETCH  ACCESS:    2782025  HIT:    1009963  MISS:    1772062
L2C WRITEBACK ACCESS:     483444  HIT:     471014  MISS:      12430
L2C PREFETCH  REQUESTED:    3199485  ISSUED:    3193495  USEFUL:     258833  USELESS:    1513024
L2C AVERAGE MISS LATENCY: 147.951 cycles
LLC TOTAL     ACCESS:    2771081  HIT:    1269094  MISS:    1501987
LLC LOAD      ACCESS:     494396  HIT:     214689  MISS:     279707
LLC RFO       ACCESS:      68236  HIT:      27804  MISS:      40432
LLC PREFETCH  ACCESS:    1789829  HIT:     674174  MISS:    1115655
LLC WRITEBACK ACCESS:     418620  HIT:     352427  MISS:      66193
LLC PREFETCH  REQUESTED:          0  ISSUED:          0  USEFUL:      25849  USELESS:    1091293
LLC AVERAGE MISS LATENCY: 170.288 cycles
Major fault: 0 Minor fault: 45102
CPU 0 L2C BOP prefetcher final stats
bop_end_phase_max_round 7209
bop_end_phase_max_score 2200
bop_total_phases 9409
bop_fill_called 2410092
bop_fill_insert_rr 2410092
bop_insert_rr_hit 1
bop_insert_rr_evict 2409835
bop_insert_rr_insert 2410091
bop_pref_buffer_buffered 0
bop_pref_buffer_spilled 0
bop_pref_buffer_issued 0
bop_pref_issued 3255503

Entry 0:   0x253c78a8593
Entry 1:   0x253c78a8594
Entry 2:   0x253c78a8595
Entry 3:   0x253c78a8596
Entry 4:   0x34efa6a5039
Entry 5:   0x2aeacd40b4
Entry 6:   0x34efa6a503b
Entry 7:   0x2aeacd40b1
Entry 8:   0x2aeacd40b5
Entry 9:   0x2aeacd40ad
Entry 10:   0x2aeacd40ae
Entry 11:   0x2aeacd40af
Entry 12:   0x1632cae7b16
Entry 13:   0x1632cae7b17
Entry 14:   0x1632cae7b18
Entry 15:   0x1632cae7b19
Entry 16:   0x1632cae7b1a
Entry 17:   0x1632cae7b1b
Entry 18:   0x1632cae7b1e
Entry 19:   0x1632cae7b1c
Entry 20:   0x1632cae7b1d
Entry 21:   0x2aeacd5cba
Entry 22:   0x2aeacd5cbb
Entry 23:   0x2aeacd5cbe
Entry 24:   0x2aeacd5cbc
Entry 25:   0x2aeacd5cbd
Entry 26:   0x2aeacd483d
Entry 27:   0x2aeacd483e
Entry 28:   0x2aeacd483f
Entry 29:   0x2aeacd481a
Entry 30:   0x2aeacd481b
Entry 31:   0x2aeacd481c
Entry 32:   0x2aeacd4818
Entry 33:   0x2aeacd4819
Entry 34:   0x2aeacd481d
Entry 35:   0x2aeacd481e
Entry 36:   0x2aeacd481f
Entry 37:   0x2aeacd4820
Entry 38:   0x3f7f4ea5782
Entry 39:   0x3f7f4ea5783
Entry 40:   0x3f7f4ea57a1
Entry 41:   0x2aeacd40b6
Entry 42:   0x6b9ac7f3e3
Entry 43:   0x3f7f4e9fb1b
Entry 44:   0x17f710fabb0
Entry 45:   0x23b109b0db0
Entry 46:   0x17f710fd2b9
Entry 47:   0x17f710fd2ba
Entry 48:   0x3f7f4e9fb1d
Entry 49:   0x3f7f4e9fb1e
Entry 50:   0x17f710fabb1
Entry 51:   0x23b109b0db1
Entry 52:   0x23b109b0db3
Entry 53:   0x11d069913b2
Entry 54:   0x3fcfff435f9
Entry 55:   0x11d069913b3
Entry 56:   0x11d069913b4
Entry 57:   0x11d069913b5
Entry 58:   0x11d069913b6
Entry 59:   0x35e798a6ac1
Entry 60:   0x35e798a6ac2
Entry 61:   0x35e798a6ac3
Entry 62:   0x35e798a6ac4
Entry 63:   0x35e798a6ac5
Entry 64:   0x11d069913b1
Entry 65:   0x35e798a6ac0
Entry 66:   0x35e798a6ac6
Entry 67:   0x3f7f4e9fb21
Entry 68:   0x3f7f4e9fb23
Entry 69:   0x19e65d5c564
Entry 70:   0x19e65d5c565
Entry 71:   0x19e65d5c566
Entry 72:   0x19e65d5c567
Entry 73:   0x19e65d5c568
Entry 74:   0x3783be71b6c
Entry 75:   0x3783be71b6d
Entry 76:   0x3783be71b6e
Entry 77:   0x3783be71b6f
Entry 78:   0x3783be71b70
Entry 79:   0x2512a98f184
Entry 80:   0x35a4ca18618
Entry 81:   0x35a4ca18619
Entry 82:   0x35a4ca1861a
Entry 83:   0x35a4ca1861b
Entry 84:   0x35a4ca1861c
Entry 85:   0x3f7f4e9ff02
Entry 86:   0x3f7f4e9ff04
Entry 87:   0x3f7f4e9ff05
Entry 88:   0x268ada63be2
Entry 89:   0x268ada63be3
Entry 90:   0x268ada63be4
Entry 91:   0x268ada63be5
Entry 92:   0x268ada63be6
Entry 93:   0x2f3afdcafdc
Entry 94:   0x2f3afdcafdd
Entry 95:   0x2f3afdcafde
Entry 96:   0x2f3afdcafdf
Entry 97:   0x2f3afdcafe0
Entry 98:   0x3f7f4e9ff2d
Entry 99:   0x3f7f4ea01c2
Entry 100:   0x3f7f4ea01c3
Entry 101:   0x3f7f4ea01c4
Entry 102:   0x3f7f4ea01c5
Entry 103:   0x3f7f4ea01c6
Entry 104:   0x367a7594bde
Entry 105:   0x367a7594bdf
Entry 106:   0x367a7594be0
Entry 107:   0x367a7594be1
Entry 108:   0x367a7594be2
Entry 109:   0x1930d564a79
Entry 110:   0x1930d564a7a
Entry 111:   0x1930d564a7b
Entry 112:   0x1930d564a7c
Entry 113:   0x14698f660d
Entry 114:   0x14698f660e
Entry 115:   0x14698f660f
Entry 116:   0x14698f6610
Entry 117:   0x14698f6611
Entry 118:   0x1930d564a78
Entry 119:   0x35e798ad42e
Entry 120:   0x35e798ad42f
Entry 121:   0x35e798ad430
Entry 122:   0x35e798ad431
Entry 123:   0x35e798ad432
Entry 124:   0x3f7f4ea1def
Entry 125:   0x3f7f4ea1df0
Entry 126:   0x3f7f4ea1df1
Entry 127:   0x3f7f4ea1df2
Entry 128:   0x3f7f4ea1df3
Entry 129:   0x22b4cc0957f
Entry 130:   0xe33e6b6d24
Entry 131:   0xe33e6b6d25
Entry 132:   0xe33e6b6d26
Entry 133:   0xe33e6b6d27
Entry 134:   0xe33e6b6d28
Entry 135:   0x263d5a441c7
Entry 136:   0x263d5a441c8
Entry 137:   0x263d5a441c9
Entry 138:   0x263d5a441ca
Entry 139:   0x263d5a441cb
Entry 140:   0x22b4cc094c0
Entry 141:   0x69c2aa182c
Entry 142:   0x69c2aa182d
Entry 143:   0x69c2aa182e
Entry 144:   0x69c2aa182f
Entry 145:   0x69c2aa1830
Entry 146:   0x237b6a1be27
Entry 147:   0x237b6a1be28
Entry 148:   0x237b6a1be29
Entry 149:   0x237b6a1be2a
Entry 150:   0x237b6a1be2b
Entry 151:   0x22b4cc09bb9
Entry 152:   0x22b4cc09bba
Entry 153:   0x22b4cc09bbb
Entry 154:   0x22b4cc09bbc
Entry 155:   0x22b4cc09bbd
Entry 156:   0x3b8c2ee4541
Entry 157:   0x3b8c2ee4542
Entry 158:   0x3b8c2ee4543
Entry 159:   0x3b8c2ee4544
Entry 160:   0x3b8c2ee4545
Entry 161:   0x33e58177543
Entry 162:   0x33e58177544
Entry 163:   0x33e58177545
Entry 164:   0x33e58177546
Entry 165:   0x33e58177547
Entry 166:   0x2aeacd40b7
Entry 167:   0x2aeacd4156
Entry 168:   0x1231fe53f47
Entry 169:   0x2aeacd40b8
Entry 170:   0x2aeacd40b9
Entry 171:   0x2aeacd40ba
Entry 172:   0x1231fe53f48
Entry 173:   0x1231fe53f49
Entry 174:   0x1231fe53f4a
Entry 175:   0x1231fe53f4b
Entry 176:   0x2aeacd40bb
Entry 177:   0x2aeacd5b1c
Entry 178:   0x2aeacd5b1d
Entry 179:   0x2aeacd5b1e
Entry 180:   0x2aeacd5b1f
Entry 181:   0x2aeacd5b20
Entry 182:   0x306d7c0435
Entry 183:   0x306d7c0436
Entry 184:   0x306d7c0437
Entry 185:   0x306d7c0438
Entry 186:   0x306d7c0439
Entry 187:   0x237b6a199eb
Entry 188:   0x1486dfd6c5d
Entry 189:   0x1486dfd6c5e
Entry 190:   0x1486dfd6c5f
Entry 191:   0x1486dfd6c60
Entry 192:   0x237b6a199e9
Entry 193:   0x237b6a199ea
Entry 194:   0x237b6a199ec
Entry 195:   0x326c074e296
Entry 196:   0x237b6a199ed
Entry 197:   0x263d5a44387
Entry 198:   0x263d5a44388
Entry 199:   0x263d5a44389
Entry 200:   0x263d5a4438a
Entry 201:   0x263d5a4438b
Entry 202:   0x326c074e297
Entry 203:   0x326c074e298
Entry 204:   0x326c074e299
Entry 205:   0x326c074e29a
Entry 206:   0x306d7c043b
Entry 207:   0x306d7c043c
Entry 208:   0x1231fe53f58
Entry 209:   0x1231fe53f59
Entry 210:   0x1231fe53f5a
Entry 211:   0x1231fe53f5b
Entry 212:   0x1231fe53f5c
Entry 213:   0x1231fe53f5d
Entry 214:   0x3f7f4e9fb18
Entry 215:   0x1231fe53f55
Entry 216:   0x1231fe53f56
Entry 217:   0x1231fe53f57
Entry 218:   0x1632cae7b23
Entry 219:   0x1632cae7b24
Entry 220:   0x1632cae7b25
Entry 221:   0x1632cae7b26
Entry 222:   0x1632cae7b27
Entry 223:   0x1632cae7b28
Entry 224:   0x1632cae7b29
Entry 225:   0x1632cae7b2a
Entry 226:   0x1632cae7b2b
Entry 227:   0x3f7f4ea43c4
Entry 228:   0x3f7f4ea43c5
Entry 229:   0x3f7f4ea43c6
Entry 230:   0x3f7f4ea43c7
Entry 231:   0x3f7f4ea43c3
Entry 232:   0x235a0e1b2f3
Entry 233:   0x235a0e1b2f4
Entry 234:   0x235a0e1b2f5
Entry 235:   0x235a0e1b2f6
Entry 236:   0x235a0e1b2f1
Entry 237:   0x235a0e1b2f2
Entry 238:   0x2aeacd4890
Entry 239:   0x2aeacd4891
Entry 240:   0x2aeacd4892
Entry 241:   0x2aeacd4893
Entry 242:   0x2aeacd4894
Entry 243:   0x235a0e1b2f8
Entry 244:   0x235a0e1b2f9
Entry 245:   0x301988acdb4
Entry 246:   0x301988acdb5
Entry 247:   0x301988acdb6
Entry 248:   0x301988acdb7
Entry 249:   0x2aeacd4154
Entry 250:   0x14698f7b8b
Entry 251:   0x14698f7b8c
Entry 252:   0x14698f7b8d
Entry 253:   0x14698f7b8e
Entry 254:   0x14698f7b8f
Entry 255:   0x3f7f4e9fb1a

DRAM Statistics
 CHANNEL 0
 RQ ROW_BUFFER_HIT:     288866  ROW_BUFFER_MISS:    1146908
 DBUS_CONGESTED:     749158
 WQ ROW_BUFFER_HIT:      33768  ROW_BUFFER_MISS:     205489  FULL:          0

 AVG_CONGESTED_CYCLE: 6

CPU 0 Branch Prediction Accuracy: 97.6149% MPKI: 4.95724 Average ROB Occupancy at Mispredict: 99.0948

Branch types
NOT_BRANCH: 39607684 79.2154%
BRANCH_DIRECT_JUMP: 566889 1.13378%
BRANCH_INDIRECT: 167944 0.335888%
BRANCH_CONDITIONAL: 6688744 13.3775%
BRANCH_DIRECT_CALL: 886310 1.77262%
BRANCH_INDIRECT_CALL: 597913 1.19583%
BRANCH_RETURN: 1484223 2.96845%
BRANCH_OTHER: 0 0%

