
*** ChampSim Multicore Out-of-Order Simulator ***

Warmup Instructions: 1000000
Simulation Instructions: 50000000
Number of CPUs: 1
LLC sets: 2048
LLC ways: 16
Off-chip DRAM Size: 4096 MB Channels: 1 Width: 64-bit Data Rate: 3200 MT/s

CPU 0 runs /home/carter/Documents/Homework/Carter-Owens-ECE-Workbook-Spring-2025/ECE-5750-Architecture/assignments/ChampSim/dpc3_traces/644.nab_s-5853B.champsimtrace.xz
CPU 0 L2C Best Offset prefetcher
Initialize SHIP state
Assign rand_sets[0]: 454  LLC: 2048
rand_sets[0]: 454
Assign rand_sets[1]: 1662  LLC: 2048
rand_sets[1]: 1662
Assign rand_sets[2]: 1921  LLC: 2048
rand_sets[2]: 1921
Assign rand_sets[3]: 1131  LLC: 2048
rand_sets[3]: 1131
Assign rand_sets[4]: 331  LLC: 2048
rand_sets[4]: 331
Assign rand_sets[5]: 1531  LLC: 2048
rand_sets[5]: 1531
Assign rand_sets[6]: 482  LLC: 2048
rand_sets[6]: 482
Assign rand_sets[7]: 1275  LLC: 2048
rand_sets[7]: 1275
Assign rand_sets[8]: 1876  LLC: 2048
rand_sets[8]: 1876
Assign rand_sets[9]: 2038  LLC: 2048
rand_sets[9]: 2038
Assign rand_sets[10]: 701  LLC: 2048
rand_sets[10]: 701
Assign rand_sets[11]: 479  LLC: 2048
rand_sets[11]: 479
Assign rand_sets[12]: 892  LLC: 2048
rand_sets[12]: 892
Assign rand_sets[13]: 1820  LLC: 2048
rand_sets[13]: 1820
Assign rand_sets[14]: 1505  LLC: 2048
rand_sets[14]: 1505
Assign rand_sets[15]: 1159  LLC: 2048
rand_sets[15]: 1159
Assign rand_sets[16]: 513  LLC: 2048
rand_sets[16]: 513
Assign rand_sets[17]: 703  LLC: 2048
rand_sets[17]: 703
Assign rand_sets[18]: 561  LLC: 2048
rand_sets[18]: 561
Assign rand_sets[19]: 990  LLC: 2048
rand_sets[19]: 990
Assign rand_sets[20]: 342  LLC: 2048
rand_sets[20]: 342
Assign rand_sets[21]: 882  LLC: 2048
rand_sets[21]: 882
Assign rand_sets[22]: 15  LLC: 2048
rand_sets[22]: 15
Assign rand_sets[23]: 71  LLC: 2048
rand_sets[23]: 71
Assign rand_sets[24]: 1127  LLC: 2048
rand_sets[24]: 1127
Assign rand_sets[25]: 1382  LLC: 2048
rand_sets[25]: 1382
Assign rand_sets[26]: 647  LLC: 2048
rand_sets[26]: 647
Assign rand_sets[27]: 857  LLC: 2048
rand_sets[27]: 857
Assign rand_sets[28]: 1450  LLC: 2048
rand_sets[28]: 1450
Assign rand_sets[29]: 1160  LLC: 2048
rand_sets[29]: 1160
Assign rand_sets[30]: 1852  LLC: 2048
rand_sets[30]: 1852
Assign rand_sets[31]: 1881  LLC: 2048
rand_sets[31]: 1881
Assign rand_sets[32]: 1770  LLC: 2048
rand_sets[32]: 1770
Assign rand_sets[33]: 1622  LLC: 2048
rand_sets[33]: 1622
Assign rand_sets[34]: 275  LLC: 2048
rand_sets[34]: 275
Assign rand_sets[35]: 635  LLC: 2048
rand_sets[35]: 635
Assign rand_sets[36]: 466  LLC: 2048
rand_sets[36]: 466
Assign rand_sets[37]: 1413  LLC: 2048
rand_sets[37]: 1413
Assign rand_sets[38]: 417  LLC: 2048
rand_sets[38]: 417
Assign rand_sets[39]: 472  LLC: 2048
rand_sets[39]: 472
Assign rand_sets[40]: 1340  LLC: 2048
rand_sets[40]: 1340
Assign rand_sets[41]: 852  LLC: 2048
rand_sets[41]: 852
Assign rand_sets[42]: 1365  LLC: 2048
rand_sets[42]: 1365
Assign rand_sets[43]: 47  LLC: 2048
rand_sets[43]: 47
Assign rand_sets[44]: 823  LLC: 2048
rand_sets[44]: 823
Assign rand_sets[45]: 686  LLC: 2048
rand_sets[45]: 686
Assign rand_sets[46]: 1637  LLC: 2048
rand_sets[46]: 1637
Assign rand_sets[47]: 1115  LLC: 2048
rand_sets[47]: 1115
Assign rand_sets[48]: 986  LLC: 2048
rand_sets[48]: 986
Assign rand_sets[49]: 258  LLC: 2048
rand_sets[49]: 258
Assign rand_sets[50]: 633  LLC: 2048
rand_sets[50]: 633
Assign rand_sets[51]: 920  LLC: 2048
rand_sets[51]: 920
Assign rand_sets[52]: 204  LLC: 2048
rand_sets[52]: 204
Assign rand_sets[53]: 227  LLC: 2048
rand_sets[53]: 227
Assign rand_sets[54]: 1818  LLC: 2048
rand_sets[54]: 1818
Assign rand_sets[55]: 886  LLC: 2048
rand_sets[55]: 886
Assign rand_sets[56]: 1422  LLC: 2048
rand_sets[56]: 1422
Assign rand_sets[57]: 607  LLC: 2048
rand_sets[57]: 607
Assign rand_sets[58]: 217  LLC: 2048
rand_sets[58]: 217
Assign rand_sets[59]: 1945  LLC: 2048
rand_sets[59]: 1945
Assign rand_sets[60]: 143  LLC: 2048
rand_sets[60]: 143
Assign rand_sets[61]: 1311  LLC: 2048
rand_sets[61]: 1311
Assign rand_sets[62]: 319  LLC: 2048
rand_sets[62]: 319
Assign rand_sets[63]: 1846  LLC: 2048
rand_sets[63]: 1846
Assign rand_sets[64]: 238  LLC: 2048
rand_sets[64]: 238
Assign rand_sets[65]: 67  LLC: 2048
rand_sets[65]: 67
Assign rand_sets[66]: 1912  LLC: 2048
rand_sets[66]: 1912
Assign rand_sets[67]: 1613  LLC: 2048
rand_sets[67]: 1613
Assign rand_sets[68]: 1293  LLC: 2048
rand_sets[68]: 1293
Assign rand_sets[69]: 1018  LLC: 2048
rand_sets[69]: 1018
Assign rand_sets[70]: 1982  LLC: 2048
rand_sets[70]: 1982
Assign rand_sets[71]: 1702  LLC: 2048
rand_sets[71]: 1702
Assign rand_sets[72]: 1498  LLC: 2048
rand_sets[72]: 1498
Assign rand_sets[73]: 228  LLC: 2048
rand_sets[73]: 228
Assign rand_sets[74]: 1414  LLC: 2048
rand_sets[74]: 1414
Assign rand_sets[75]: 1166  LLC: 2048
rand_sets[75]: 1166
Assign rand_sets[76]: 732  LLC: 2048
rand_sets[76]: 732
Assign rand_sets[77]: 297  LLC: 2048
rand_sets[77]: 297
Assign rand_sets[78]: 1133  LLC: 2048
rand_sets[78]: 1133
Assign rand_sets[79]: 846  LLC: 2048
rand_sets[79]: 846
Assign rand_sets[80]: 767  LLC: 2048
rand_sets[80]: 767
Assign rand_sets[81]: 1878  LLC: 2048
rand_sets[81]: 1878
Assign rand_sets[82]: 993  LLC: 2048
rand_sets[82]: 993
Assign rand_sets[83]: 1392  LLC: 2048
rand_sets[83]: 1392
Assign rand_sets[84]: 1568  LLC: 2048
rand_sets[84]: 1568
Assign rand_sets[85]: 1787  LLC: 2048
rand_sets[85]: 1787
Assign rand_sets[86]: 399  LLC: 2048
rand_sets[86]: 399
Assign rand_sets[87]: 1201  LLC: 2048
rand_sets[87]: 1201
Assign rand_sets[88]: 856  LLC: 2048
rand_sets[88]: 856
Assign rand_sets[89]: 773  LLC: 2048
rand_sets[89]: 773
Assign rand_sets[90]: 1680  LLC: 2048
rand_sets[90]: 1680
Assign rand_sets[91]: 1477  LLC: 2048
rand_sets[91]: 1477
Assign rand_sets[92]: 9  LLC: 2048
rand_sets[92]: 9
Assign rand_sets[93]: 1500  LLC: 2048
rand_sets[93]: 1500
Assign rand_sets[94]: 851  LLC: 2048
rand_sets[94]: 851
Assign rand_sets[95]: 973  LLC: 2048
rand_sets[95]: 973
Assign rand_sets[96]: 938  LLC: 2048
rand_sets[96]: 938
Assign rand_sets[97]: 1851  LLC: 2048
rand_sets[97]: 1851
Assign rand_sets[98]: 1608  LLC: 2048
rand_sets[98]: 1608
Assign rand_sets[99]: 1945  LLC: 2048
Assign rand_sets[99]: 1106  LLC: 2048
rand_sets[99]: 1106
Assign rand_sets[100]: 979  LLC: 2048
rand_sets[100]: 979
Assign rand_sets[101]: 338  LLC: 2048
rand_sets[101]: 338
Assign rand_sets[102]: 1693  LLC: 2048
rand_sets[102]: 1693
Assign rand_sets[103]: 6  LLC: 2048
rand_sets[103]: 6
Assign rand_sets[104]: 671  LLC: 2048
rand_sets[104]: 671
Assign rand_sets[105]: 490  LLC: 2048
rand_sets[105]: 490
Assign rand_sets[106]: 1461  LLC: 2048
rand_sets[106]: 1461
Assign rand_sets[107]: 1730  LLC: 2048
rand_sets[107]: 1730
Assign rand_sets[108]: 1030  LLC: 2048
rand_sets[108]: 1030
Assign rand_sets[109]: 19  LLC: 2048
rand_sets[109]: 19
Assign rand_sets[110]: 920  LLC: 2048
Assign rand_sets[110]: 329  LLC: 2048
rand_sets[110]: 329
Assign rand_sets[111]: 1714  LLC: 2048
rand_sets[111]: 1714
Assign rand_sets[112]: 1  LLC: 2048
rand_sets[112]: 1
Assign rand_sets[113]: 1822  LLC: 2048
rand_sets[113]: 1822
Assign rand_sets[114]: 172  LLC: 2048
rand_sets[114]: 172
Assign rand_sets[115]: 1586  LLC: 2048
rand_sets[115]: 1586
Assign rand_sets[116]: 648  LLC: 2048
rand_sets[116]: 648
Assign rand_sets[117]: 1329  LLC: 2048
rand_sets[117]: 1329
Assign rand_sets[118]: 668  LLC: 2048
rand_sets[118]: 668
Assign rand_sets[119]: 1874  LLC: 2048
rand_sets[119]: 1874
Assign rand_sets[120]: 70  LLC: 2048
rand_sets[120]: 70
Assign rand_sets[121]: 661  LLC: 2048
rand_sets[121]: 661
Assign rand_sets[122]: 1649  LLC: 2048
rand_sets[122]: 1649
Assign rand_sets[123]: 1590  LLC: 2048
rand_sets[123]: 1590
Assign rand_sets[124]: 911  LLC: 2048
rand_sets[124]: 911
Assign rand_sets[125]: 1367  LLC: 2048
rand_sets[125]: 1367
Assign rand_sets[126]: 1782  LLC: 2048
rand_sets[126]: 1782
Assign rand_sets[127]: 569  LLC: 2048
rand_sets[127]: 569
Assign rand_sets[128]: 1309  LLC: 2048
rand_sets[128]: 1309
Assign rand_sets[129]: 534  LLC: 2048
rand_sets[129]: 534
Assign rand_sets[130]: 1274  LLC: 2048
rand_sets[130]: 1274
Assign rand_sets[131]: 904  LLC: 2048
rand_sets[131]: 904
Assign rand_sets[132]: 1908  LLC: 2048
rand_sets[132]: 1908
Assign rand_sets[133]: 245  LLC: 2048
rand_sets[133]: 245
Assign rand_sets[134]: 1688  LLC: 2048
rand_sets[134]: 1688
Assign rand_sets[135]: 1660  LLC: 2048
rand_sets[135]: 1660
Assign rand_sets[136]: 1303  LLC: 2048
rand_sets[136]: 1303
Assign rand_sets[137]: 1628  LLC: 2048
rand_sets[137]: 1628
Assign rand_sets[138]: 1857  LLC: 2048
rand_sets[138]: 1857
Assign rand_sets[139]: 187  LLC: 2048
rand_sets[139]: 187
Assign rand_sets[140]: 1389  LLC: 2048
rand_sets[140]: 1389
Assign rand_sets[141]: 881  LLC: 2048
rand_sets[141]: 881
Assign rand_sets[142]: 1166  LLC: 2048
Assign rand_sets[142]: 1039  LLC: 2048
rand_sets[142]: 1039
Assign rand_sets[143]: 1136  LLC: 2048
rand_sets[143]: 1136
Assign rand_sets[144]: 601  LLC: 2048
rand_sets[144]: 601
Assign rand_sets[145]: 967  LLC: 2048
rand_sets[145]: 967
Assign rand_sets[146]: 769  LLC: 2048
rand_sets[146]: 769
Assign rand_sets[147]: 283  LLC: 2048
rand_sets[147]: 283
Assign rand_sets[148]: 559  LLC: 2048
rand_sets[148]: 559
Assign rand_sets[149]: 1075  LLC: 2048
rand_sets[149]: 1075
Assign rand_sets[150]: 829  LLC: 2048
rand_sets[150]: 829
Assign rand_sets[151]: 1681  LLC: 2048
rand_sets[151]: 1681
Assign rand_sets[152]: 1728  LLC: 2048
rand_sets[152]: 1728
Assign rand_sets[153]: 541  LLC: 2048
rand_sets[153]: 541
Assign rand_sets[154]: 421  LLC: 2048
rand_sets[154]: 421
Assign rand_sets[155]: 1037  LLC: 2048
rand_sets[155]: 1037
Assign rand_sets[156]: 13  LLC: 2048
rand_sets[156]: 13
Assign rand_sets[157]: 1707  LLC: 2048
rand_sets[157]: 1707
Assign rand_sets[158]: 1075  LLC: 2048
Assign rand_sets[158]: 1933  LLC: 2048
rand_sets[158]: 1933
Assign rand_sets[159]: 1406  LLC: 2048
rand_sets[159]: 1406
Assign rand_sets[160]: 94  LLC: 2048
rand_sets[160]: 94
Assign rand_sets[161]: 1423  LLC: 2048
rand_sets[161]: 1423
Assign rand_sets[162]: 1854  LLC: 2048
rand_sets[162]: 1854
Assign rand_sets[163]: 230  LLC: 2048
rand_sets[163]: 230
Assign rand_sets[164]: 104  LLC: 2048
rand_sets[164]: 104
Assign rand_sets[165]: 1652  LLC: 2048
rand_sets[165]: 1652
Assign rand_sets[166]: 1446  LLC: 2048
rand_sets[166]: 1446
Assign rand_sets[167]: 1338  LLC: 2048
rand_sets[167]: 1338
Assign rand_sets[168]: 177  LLC: 2048
rand_sets[168]: 177
Assign rand_sets[169]: 195  LLC: 2048
rand_sets[169]: 195
Assign rand_sets[170]: 1171  LLC: 2048
rand_sets[170]: 1171
Assign rand_sets[171]: 1297  LLC: 2048
rand_sets[171]: 1297
Assign rand_sets[172]: 1704  LLC: 2048
rand_sets[172]: 1704
Assign rand_sets[173]: 100  LLC: 2048
rand_sets[173]: 100
Assign rand_sets[174]: 711  LLC: 2048
rand_sets[174]: 711
Assign rand_sets[175]: 1243  LLC: 2048
rand_sets[175]: 1243
Assign rand_sets[176]: 1738  LLC: 2048
rand_sets[176]: 1738
Assign rand_sets[177]: 1504  LLC: 2048
rand_sets[177]: 1504
Assign rand_sets[178]: 96  LLC: 2048
rand_sets[178]: 96
Assign rand_sets[179]: 1249  LLC: 2048
rand_sets[179]: 1249
Assign rand_sets[180]: 1267  LLC: 2048
rand_sets[180]: 1267
Assign rand_sets[181]: 1727  LLC: 2048
rand_sets[181]: 1727
Assign rand_sets[182]: 1545  LLC: 2048
rand_sets[182]: 1545
Assign rand_sets[183]: 1792  LLC: 2048
rand_sets[183]: 1792
Assign rand_sets[184]: 1383  LLC: 2048
rand_sets[184]: 1383
Assign rand_sets[185]: 1954  LLC: 2048
rand_sets[185]: 1954
Assign rand_sets[186]: 739  LLC: 2048
rand_sets[186]: 739
Assign rand_sets[187]: 1061  LLC: 2048
rand_sets[187]: 1061
Assign rand_sets[188]: 672  LLC: 2048
rand_sets[188]: 672
Assign rand_sets[189]: 1057  LLC: 2048
rand_sets[189]: 1057
Assign rand_sets[190]: 1329  LLC: 2048
Assign rand_sets[190]: 1415  LLC: 2048
rand_sets[190]: 1415
Assign rand_sets[191]: 981  LLC: 2048
rand_sets[191]: 981
Assign rand_sets[192]: 98  LLC: 2048
rand_sets[192]: 98
Assign rand_sets[193]: 453  LLC: 2048
rand_sets[193]: 453
Assign rand_sets[194]: 1448  LLC: 2048
rand_sets[194]: 1448
Assign rand_sets[195]: 79  LLC: 2048
rand_sets[195]: 79
Assign rand_sets[196]: 126  LLC: 2048
rand_sets[196]: 126
Assign rand_sets[197]: 1582  LLC: 2048
rand_sets[197]: 1582
Assign rand_sets[198]: 1289  LLC: 2048
rand_sets[198]: 1289
Assign rand_sets[199]: 875  LLC: 2048
rand_sets[199]: 875
Assign rand_sets[200]: 404  LLC: 2048
rand_sets[200]: 404
Assign rand_sets[201]: 415  LLC: 2048
rand_sets[201]: 415
Assign rand_sets[202]: 1712  LLC: 2048
rand_sets[202]: 1712
Assign rand_sets[203]: 1389  LLC: 2048
Assign rand_sets[203]: 169  LLC: 2048
rand_sets[203]: 169
Assign rand_sets[204]: 158  LLC: 2048
rand_sets[204]: 158
Assign rand_sets[205]: 90  LLC: 2048
rand_sets[205]: 90
Assign rand_sets[206]: 1291  LLC: 2048
rand_sets[206]: 1291
Assign rand_sets[207]: 838  LLC: 2048
rand_sets[207]: 838
Assign rand_sets[208]: 1904  LLC: 2048
rand_sets[208]: 1904
Assign rand_sets[209]: 640  LLC: 2048
rand_sets[209]: 640
Assign rand_sets[210]: 1462  LLC: 2048
rand_sets[210]: 1462
Assign rand_sets[211]: 1487  LLC: 2048
rand_sets[211]: 1487
Assign rand_sets[212]: 1863  LLC: 2048
rand_sets[212]: 1863
Assign rand_sets[213]: 1036  LLC: 2048
rand_sets[213]: 1036
Assign rand_sets[214]: 1702  LLC: 2048
Assign rand_sets[214]: 933  LLC: 2048
rand_sets[214]: 933
Assign rand_sets[215]: 554  LLC: 2048
rand_sets[215]: 554
Assign rand_sets[216]: 1496  LLC: 2048
rand_sets[216]: 1496
Assign rand_sets[217]: 1708  LLC: 2048
rand_sets[217]: 1708
Assign rand_sets[218]: 1275  LLC: 2048
Assign rand_sets[218]: 416  LLC: 2048
rand_sets[218]: 416
Assign rand_sets[219]: 491  LLC: 2048
rand_sets[219]: 491
Assign rand_sets[220]: 183  LLC: 2048
rand_sets[220]: 183
Assign rand_sets[221]: 1657  LLC: 2048
rand_sets[221]: 1657
Assign rand_sets[222]: 1060  LLC: 2048
rand_sets[222]: 1060
Assign rand_sets[223]: 626  LLC: 2048
rand_sets[223]: 626
Assign rand_sets[224]: 1315  LLC: 2048
rand_sets[224]: 1315
Assign rand_sets[225]: 1682  LLC: 2048
rand_sets[225]: 1682
Assign rand_sets[226]: 1352  LLC: 2048
rand_sets[226]: 1352
Assign rand_sets[227]: 1152  LLC: 2048
rand_sets[227]: 1152
Assign rand_sets[228]: 965  LLC: 2048
rand_sets[228]: 965
Assign rand_sets[229]: 1190  LLC: 2048
rand_sets[229]: 1190
Assign rand_sets[230]: 1191  LLC: 2048
rand_sets[230]: 1191
Assign rand_sets[231]: 645  LLC: 2048
rand_sets[231]: 645
Assign rand_sets[232]: 695  LLC: 2048
rand_sets[232]: 695
Assign rand_sets[233]: 1495  LLC: 2048
rand_sets[233]: 1495
Assign rand_sets[234]: 1932  LLC: 2048
rand_sets[234]: 1932
Assign rand_sets[235]: 656  LLC: 2048
rand_sets[235]: 656
Assign rand_sets[236]: 1508  LLC: 2048
rand_sets[236]: 1508
Assign rand_sets[237]: 939  LLC: 2048
rand_sets[237]: 939
Assign rand_sets[238]: 355  LLC: 2048
rand_sets[238]: 355
Assign rand_sets[239]: 1092  LLC: 2048
rand_sets[239]: 1092
Assign rand_sets[240]: 850  LLC: 2048
rand_sets[240]: 850
Assign rand_sets[241]: 102  LLC: 2048
rand_sets[241]: 102
Assign rand_sets[242]: 1763  LLC: 2048
rand_sets[242]: 1763
Assign rand_sets[243]: 668  LLC: 2048
Assign rand_sets[243]: 51  LLC: 2048
rand_sets[243]: 51
Assign rand_sets[244]: 1317  LLC: 2048
rand_sets[244]: 1317
Assign rand_sets[245]: 2041  LLC: 2048
rand_sets[245]: 2041
Assign rand_sets[246]: 1374  LLC: 2048
rand_sets[246]: 1374
Assign rand_sets[247]: 682  LLC: 2048
rand_sets[247]: 682
Assign rand_sets[248]: 1466  LLC: 2048
rand_sets[248]: 1466
Assign rand_sets[249]: 1139  LLC: 2048
rand_sets[249]: 1139
Assign rand_sets[250]: 1632  LLC: 2048
rand_sets[250]: 1632
Assign rand_sets[251]: 1117  LLC: 2048
rand_sets[251]: 1117
Assign rand_sets[252]: 1611  LLC: 2048
rand_sets[252]: 1611
Assign rand_sets[253]: 1905  LLC: 2048
rand_sets[253]: 1905
Assign rand_sets[254]: 1662  LLC: 2048
Assign rand_sets[254]: 446  LLC: 2048
rand_sets[254]: 446
Assign rand_sets[255]: 1705  LLC: 2048
rand_sets[255]: 1705

Warmup complete CPU 0 instructions: 1000004 cycles: 424093 (Simulation time: 0 hr 0 min 1 sec) 

Heartbeat CPU 0 instructions: 10000000 cycles: 6533903 heartbeat IPC: 1.53048 cumulative IPC: 1.47304 (Simulation time: 0 hr 0 min 13 sec) 
Heartbeat CPU 0 instructions: 20000000 cycles: 13307850 heartbeat IPC: 1.47624 cumulative IPC: 1.47472 (Simulation time: 0 hr 0 min 27 sec) 
Heartbeat CPU 0 instructions: 30000000 cycles: 20072275 heartbeat IPC: 1.47832 cumulative IPC: 1.47596 (Simulation time: 0 hr 0 min 41 sec) 
Heartbeat CPU 0 instructions: 40000001 cycles: 26839856 heartbeat IPC: 1.47763 cumulative IPC: 1.47639 (Simulation time: 0 hr 0 min 55 sec) 
Heartbeat CPU 0 instructions: 50000003 cycles: 33609099 heartbeat IPC: 1.47727 cumulative IPC: 1.47657 (Simulation time: 0 hr 1 min 9 sec) 
Finished CPU 0 instructions: 50000003 cycles: 33860635 cumulative IPC: 1.47664 (Simulation time: 0 hr 1 min 10 sec) 

ChampSim completed all CPUs

Region of Interest Statistics

CPU 0 cumulative IPC: 1.47664 instructions: 50000003 cycles: 33860635
L1D TOTAL     ACCESS:   15724392  HIT:   15470135  MISS:     254257
L1D LOAD      ACCESS:   10193369  HIT:    9939558  MISS:     253811
L1D RFO       ACCESS:    5531023  HIT:    5530577  MISS:        446
L1D PREFETCH  ACCESS:          0  HIT:          0  MISS:          0
L1D WRITEBACK ACCESS:          0  HIT:          0  MISS:          0
L1D PREFETCH  REQUESTED:          0  ISSUED:          0  USEFUL:          0  USELESS:          0
L1D AVERAGE MISS LATENCY: 15.1434 cycles
L1I TOTAL     ACCESS:   13804210  HIT:   13804110  MISS:        100
L1I LOAD      ACCESS:   13804210  HIT:   13804110  MISS:        100
L1I RFO       ACCESS:          0  HIT:          0  MISS:          0
L1I PREFETCH  ACCESS:          0  HIT:          0  MISS:          0
L1I WRITEBACK ACCESS:          0  HIT:          0  MISS:          0
L1I PREFETCH  REQUESTED:          0  ISSUED:          0  USEFUL:          0  USELESS:          0
L1I AVERAGE MISS LATENCY: 85.73 cycles
L2C TOTAL     ACCESS:    1039406  HIT:    1025242  MISS:      14164
L2C LOAD      ACCESS:     253911  HIT:     251536  MISS:       2375
L2C RFO       ACCESS:        445  HIT:        367  MISS:         78
L2C PREFETCH  ACCESS:     709644  HIT:     697933  MISS:      11711
L2C WRITEBACK ACCESS:      75406  HIT:      75406  MISS:          0
L2C PREFETCH  REQUESTED:     711815  ISSUED:     711757  USEFUL:       7567  USELESS:       3897
L2C AVERAGE MISS LATENCY: 111.812 cycles
LLC TOTAL     ACCESS:      14633  HIT:       2287  MISS:      12346
LLC LOAD      ACCESS:       2369  HIT:        189  MISS:       2180
LLC RFO       ACCESS:         78  HIT:         40  MISS:         38
LLC PREFETCH  ACCESS:      11717  HIT:       1589  MISS:      10128
LLC WRITEBACK ACCESS:        469  HIT:        469  MISS:          0
LLC PREFETCH  REQUESTED:          0  ISSUED:          0  USEFUL:        114  USELESS:          0
LLC AVERAGE MISS LATENCY: 93.1538 cycles
Major fault: 0 Minor fault: 496
CPU 0 L2C BOP prefetcher final stats
bop_end_phase_max_round 2572
bop_end_phase_max_score 46
bop_total_phases 2618
bop_fill_called 16833
bop_fill_insert_rr 16833
bop_insert_rr_hit 2
bop_insert_rr_evict 16575
bop_insert_rr_insert 16831
bop_pref_buffer_buffered 0
bop_pref_buffer_spilled 0
bop_pref_buffer_issued 0
bop_pref_issued 723694

Entry 0:   0x286af5fdf33
Entry 1:   0x286af5fdf36
Entry 2:   0x286af5fdf39
Entry 3:   0x286af5fdf3a
Entry 4:   0x286af5fdf3b
Entry 5:   0x286af5fdf3c
Entry 6:   0x286af5fdf3d
Entry 7:   0x3f7f4e9fc8b
Entry 8:   0x286af5fdf3e
Entry 9:   0x286af5fdf3f
Entry 10:   0x286af5fdf7f
Entry 11:   0x286af5fd8d2
Entry 12:   0x286af5fdf80
Entry 13:   0x286af5fdf81
Entry 14:   0x286af5fdf83
Entry 15:   0x286af5fdf84
Entry 16:   0x286af5fdf82
Entry 17:   0x286af5fdf85
Entry 18:   0x286af5fdf86
Entry 19:   0x286af5fdf87
Entry 20:   0x286af5fdf88
Entry 21:   0x286af5fdf89
Entry 22:   0x286af5fdf8a
Entry 23:   0x286af5fdf8b
Entry 24:   0x286af5fdf8c
Entry 25:   0x286af5fdf8d
Entry 26:   0x286af5fdf8e
Entry 27:   0x286af5fdf8f
Entry 28:   0x286af5fdf90
Entry 29:   0x286af5fdf91
Entry 30:   0x286af5fdf92
Entry 31:   0x286af5fdf93
Entry 32:   0x286af5fdf95
Entry 33:   0x286af5fdf9a
Entry 34:   0x286af5fdf9f
Entry 35:   0x286af5fdfa4
Entry 36:   0x286af5fdf96
Entry 37:   0x286af5fdf9b
Entry 38:   0x286af5fdfa0
Entry 39:   0x286af5fdfa5
Entry 40:   0x286af5fdf97
Entry 41:   0x286af5fdf9c
Entry 42:   0x286af5fdfa1
Entry 43:   0x286af5fdfa6
Entry 44:   0x286af5fdf98
Entry 45:   0x286af5fdf9d
Entry 46:   0x286af5fdfa2
Entry 47:   0x286af5fdfa7
Entry 48:   0x286af5fdf94
Entry 49:   0x286af5fdfb4
Entry 50:   0x286af5fdfb5
Entry 51:   0x286af5fdfb6
Entry 52:   0x286af5fdf99
Entry 53:   0x286af5fdf9e
Entry 54:   0x286af5fdfa3
Entry 55:   0x286af5fdfd5
Entry 56:   0x286af5fdfd6
Entry 57:   0x286af5fdfd7
Entry 58:   0x286af5fdfd8
Entry 59:   0x286af5fdfd9
Entry 60:   0x286af5fdfda
Entry 61:   0x286af5fdfdb
Entry 62:   0x286af5fdfdc
Entry 63:   0x286af5fdfdd
Entry 64:   0x286af5fdfde
Entry 65:   0x286af5fdfdf
Entry 66:   0x286af5fdfe0
Entry 67:   0x286af5fdfe1
Entry 68:   0x286af5fdfe2
Entry 69:   0x286af5fdfe3
Entry 70:   0x286af5fdfe4
Entry 71:   0x286af5fdfe5
Entry 72:   0x286af5fdfe6
Entry 73:   0x286af5fdfe7
Entry 74:   0x286af5fdfe8
Entry 75:   0x3f7f4e9f9c9
Entry 76:   0x3f7f4e9f9ca
Entry 77:   0x3f7f4e9f8b4
Entry 78:   0x3f7f4e9f9cb
Entry 79:   0x3f7f4e9f9cc
Entry 80:   0x3f7f4e9f9cd
Entry 81:   0x3f7f4e9f8b5
Entry 82:   0x3f7f4e9fa02
Entry 83:   0x3f7f4e9fa03
Entry 84:   0x3f7f4e9fa7e
Entry 85:   0x3f7f4e9fa7f
Entry 86:   0x286af5fdfe9
Entry 87:   0x286af5fdfea
Entry 88:   0x286af5fdfeb
Entry 89:   0x286af5fdfec
Entry 90:   0x286af5fdfed
Entry 91:   0x286af5fdfee
Entry 92:   0x3f7f4e9f758
Entry 93:   0x286af5fdfef
Entry 94:   0x286af5fdff0
Entry 95:   0x286af5fdff1
Entry 96:   0x286af5fdff2
Entry 97:   0x286af5fdff3
Entry 98:   0x286af5fdff4
Entry 99:   0x286af5fdff5
Entry 100:   0x286af5fdff6
Entry 101:   0x286af5fdff7
Entry 102:   0x286af5fdff8
Entry 103:   0x286af5fdff9
Entry 104:   0x286af5fdffa
Entry 105:   0x286af5fdffb
Entry 106:   0x286af5fdffc
Entry 107:   0x286af5fe008
Entry 108:   0x286af5fe009
Entry 109:   0x286af5fe00a
Entry 110:   0x286af5fe00b
Entry 111:   0x286af5fe00c
Entry 112:   0x286af5fd8d3
Entry 113:   0x286af5fe00d
Entry 114:   0x286af5fe00e
Entry 115:   0x286af5fe00f
Entry 116:   0x3f7f4e9f2b6
Entry 117:   0x286af5fe02a
Entry 118:   0x286af5fe039
Entry 119:   0x286af5fe01b
Entry 120:   0x286af5fe01c
Entry 121:   0x286af5fe02b
Entry 122:   0x286af5fe03a
Entry 123:   0x286af5fe01d
Entry 124:   0x286af5fe02c
Entry 125:   0x286af5fe03b
Entry 126:   0x286af5fe01e
Entry 127:   0x286af5fe02d
Entry 128:   0x286af5fe03c
Entry 129:   0x286af5fe010
Entry 130:   0x286af5fe011
Entry 131:   0x286af5fe012
Entry 132:   0x286af5fe013
Entry 133:   0x286af5fe014
Entry 134:   0x286af5fe015
Entry 135:   0x286af5fe016
Entry 136:   0x286af5fe017
Entry 137:   0x3f7f4e9f7e0
Entry 138:   0x3f7f4e9f7f8
Entry 139:   0x286af5fe02e
Entry 140:   0x3f7f4e9f7e1
Entry 141:   0x3f7f4e9f7f9
Entry 142:   0x3f7f4e9f7e3
Entry 143:   0x3f7f4e9f7fb
Entry 144:   0x3f7f4e9f7e2
Entry 145:   0x3f7f4e9f7fa
Entry 146:   0x3f7f4e9f80d
Entry 147:   0x3f7f4e9f821
Entry 148:   0x3f7f4e9f82b
Entry 149:   0x3f7f4e9f84a
Entry 150:   0x3f7f4e9f854
Entry 151:   0x3f7f4e9f85e
Entry 152:   0x3f7f4e9f868
Entry 153:   0x3f7f4e9f7d6
Entry 154:   0x3f7f4e9f7ea
Entry 155:   0x3f7f4e9f7f4
Entry 156:   0x3f7f4e9f90c
Entry 157:   0x3f7f4e9f920
Entry 158:   0x3f7f4e9f92a
Entry 159:   0x3f7f4e9f90d
Entry 160:   0x3f7f4e9f921
Entry 161:   0x3f7f4e9f92b
Entry 162:   0x3f7f4e9f89b
Entry 163:   0x3f7f4e9f8a5
Entry 164:   0x3f7f4e9f8af
Entry 165:   0x3f7f4e9f83d
Entry 166:   0x3f7f4e9f2b5
Entry 167:   0x3f7f4e9f8e0
Entry 168:   0x3f7f4e9f8ea
Entry 169:   0x3f7f4e9f8f4
Entry 170:   0x3f7f4e9f94e
Entry 171:   0x3f7f4e9f958
Entry 172:   0x3f7f4e9f8a6
Entry 173:   0x3f7f4e9f8b0
Entry 174:   0x3f7f4e9f922
Entry 175:   0x3f7f4e9f92c
Entry 176:   0x3f7f4e9f83e
Entry 177:   0x3f7f4e9f936
Entry 178:   0x3f7f4e9f923
Entry 179:   0x3f7f4e9f92d
Entry 180:   0x3f7f4e9f937
Entry 181:   0x3f7f4e9f895
Entry 182:   0x3f7f4e9f89f
Entry 183:   0x3f7f4e9f8a9
Entry 184:   0x3f7f4e9f8b3
Entry 185:   0x3f7f4e9f765
Entry 186:   0x3f7f4e9f823
Entry 187:   0x3f7f4e9f82d
Entry 188:   0x3f7f4e9f837
Entry 189:   0x3f7f4e9f997
Entry 190:   0x3f7f4e9f9a1
Entry 191:   0x3f7f4e9f9ab
Entry 192:   0x3f7f4e9f8da
Entry 193:   0x3f7f4e9f8e4
Entry 194:   0x3f7f4e9f8ee
Entry 195:   0x3f7f4e9f8f8
Entry 196:   0x3f7f4e9f91a
Entry 197:   0x3f7f4e9f924
Entry 198:   0x3f7f4e9f92e
Entry 199:   0x3f7f4e9f938
Entry 200:   0x3f7f4e9f896
Entry 201:   0x3f7f4e9f8a0
Entry 202:   0x3f7f4e9f8aa
Entry 203:   0x3f7f4e9f98f
Entry 204:   0x3f7f4e9f999
Entry 205:   0x3f7f4e9f9a3
Entry 206:   0x3f7f4e9f9ad
Entry 207:   0x3f7f4e9f8db
Entry 208:   0x3f7f4e9f8e5
Entry 209:   0x3f7f4e9f8ef
Entry 210:   0x3f7f4e9f91b
Entry 211:   0x3f7f4e9f925
Entry 212:   0x3f7f4e9f92f
Entry 213:   0x3f7f4e9f939
Entry 214:   0x3f7f4e9f990
Entry 215:   0x3f7f4e9f99a
Entry 216:   0x3f7f4e9f9a4
Entry 217:   0x3f7f4e9f9ae
Entry 218:   0x3f7f4e9f926
Entry 219:   0x3f7f4e9f930
Entry 220:   0x3f7f4e9f93a
Entry 221:   0x286af5fe021
Entry 222:   0x286af5fe035
Entry 223:   0x286af5fe03f
Entry 224:   0x3f7f4e9f99b
Entry 225:   0x3f7f4e9f9a5
Entry 226:   0x3f7f4e9f927
Entry 227:   0x3f7f4e9f931
Entry 228:   0x3f7f4e9f93b
Entry 229:   0x3f7f4e9f839
Entry 230:   0x3f7f4e9f99c
Entry 231:   0x3f7f4e9f9a6
Entry 232:   0x3f7f4e9f91e
Entry 233:   0x3f7f4e9f928
Entry 234:   0x3f7f4e9f932
Entry 235:   0x3f7f4e9f93c
Entry 236:   0x3f7f4e9f993
Entry 237:   0x3f7f4e9f99d
Entry 238:   0x3f7f4e9f9a7
Entry 239:   0x3f7f4e9f9b1
Entry 240:   0x3f7f4e9f91f
Entry 241:   0x3f7f4e9f929
Entry 242:   0x3f7f4e9f933
Entry 243:   0x3f7f4e9f93d
Entry 244:   0x3f7f4e9f951
Entry 245:   0x3f7f4e9f9de
Entry 246:   0x3f7f4e9f9d4
Entry 247:   0x3f7f4e9f9d8
Entry 248:   0x3f7f4e9f9e2
Entry 249:   0x3f7f4e9fa8d
Entry 250:   0x286af5fe018
Entry 251:   0x286af5fe022
Entry 252:   0x286af5fe036
Entry 253:   0x286af5fe019
Entry 254:   0x286af5fe034
Entry 255:   0x286af5fe01a

DRAM Statistics
 CHANNEL 0
 RQ ROW_BUFFER_HIT:      10947  ROW_BUFFER_MISS:       1399
 DBUS_CONGESTED:       2596
 WQ ROW_BUFFER_HIT:          0  ROW_BUFFER_MISS:          0  FULL:          0

 AVG_CONGESTED_CYCLE: 6

CPU 0 Branch Prediction Accuracy: 99.9476% MPKI: 0.05072 Average ROB Occupancy at Mispredict: 211.424

Branch types
NOT_BRANCH: 45158605 90.3172%
BRANCH_DIRECT_JUMP: 415222 0.830444%
BRANCH_INDIRECT: 16 3.2e-05%
BRANCH_CONDITIONAL: 3320168 6.64034%
BRANCH_DIRECT_CALL: 552997 1.10599%
BRANCH_INDIRECT_CALL: 0 0%
BRANCH_RETURN: 552997 1.10599%
BRANCH_OTHER: 0 0%

